16

 C -0.44490722 -0.07748825 0.30799926
 H 0.44490722 0.07748825 -0.30799926
 H -1.31297144 -0.23288952 -0.33824009
 H -0.30068296 -0.95635944 0.94205365
 H -0.61100601 0.80178552 0.93611579
 Pt 4.50000000 0.00000000 0.00000000
 N 4.14594131 -1.96322990 -0.57490006
 N 4.85579012 1.96287247 0.57494306
 Cl 4.35708749 -0.58988519 2.35167002
 Cl 4.64249238 0.58978026 -2.35181683
 H 4.22971263 -1.99368232 -1.59390956
 H 4.83278311 -2.57309078 -0.13150043
 H 3.20684115 -2.23282611 -0.28168445
 H 4.76626040 1.99498149 1.59339613
 H 5.79761748 2.22878404 0.28713982
 H 4.17381781 2.57459085 0.12658569
