16

 C -0.44490722 -0.07748825 0.30799926
 H 0.44490722 0.07748825 -0.30799926
 H -1.31297144 -0.23288952 -0.33824009
 H -0.30068296 -0.95635944 0.94205365
 H -0.61100601 0.80178552 0.93611579
 Pt 4.32562722 -0.02617610 0.39031851
 N 2.64940049 0.07409963 1.61111661
 N 6.00186277 -0.12468522 -0.83056021
 Cl 2.95059951 -0.07409963 -1.61111661
 Cl 5.70052363 0.02136361 2.39196460
 H 2.98721635 0.17966002 2.57083678
 H 2.07756627 0.87162564 1.33319025
 H 2.11109346 -0.78652264 1.51051121
 H 5.66458830 -0.23621787 -1.78977843
 H 6.53549065 0.73932273 -0.73407194
 H 6.57808629 -0.91779289 -0.54903469
