16

 C -0.44490722 -0.07748825 0.30799926
 H 0.44490722 0.07748825 -0.30799926
 H -1.31297144 -0.23288952 -0.33824009
 H -0.30068296 -0.95635944 0.94205365
 H -0.61100601 0.80178552 0.93611579
 Pt 4.50000000 0.00000000 0.00000000
 N 4.18375490 2.05053509 -0.07371686
 N 4.81506288 -2.05073297 0.07241660
 Cl 2.71268120 -0.28732356 1.61915937
 Cl 6.28760954 0.28759085 -1.61892893
 H 4.81340840 2.42231589 -0.78900761
 H 3.20888537 2.23260626 -0.31197018
 H 4.39572155 2.45409373 0.83884940
 H 4.18983822 -2.42212073 0.79176246
 H 4.59616275 -2.45377113 -0.83874826
 H 5.79137863 -2.23405959 0.30373640
