16

 C -0.44490722 -0.07748825 0.30799926
 H 0.44490722 0.07748825 -0.30799926
 H -1.31297144 -0.23288952 -0.33824009
 H -0.30068296 -0.95635944 0.94205365
 H -0.61100601 0.80178552 0.93611579
 Pt 4.80000000 0.00000000 0.00000000
 N 3.10262901 -1.17910490 -0.19693309
 N 6.49632962 1.18049244 0.19727620
 Cl 4.74793313 0.58988401 -2.35543336
 Cl 4.85212519 -0.59033708 2.35541341
 H 2.86155013 -1.51095943 0.74012555
 H 2.34796269 -0.61943597 -0.59383940
 H 3.31074255 -1.96334341 -0.81517682
 H 6.74121553 1.50772796 -0.74040232
 H 6.28473632 1.96794481 0.81024070
 H 7.24972301 0.62371428 0.60064506
