16

 C -0.44490722 -0.07748825 0.30799926
 H 0.44490722 0.07748825 -0.30799926
 H -1.31297144 -0.23288952 -0.33824009
 H -0.30068296 -0.95635944 0.94205365
 H -0.61100601 0.80178552 0.93611579
 Pt 4.70000000 0.00000000 0.00000000
 N 3.00262634 -0.22316411 1.17441889
 N 6.39836217 0.22305424 -1.17295662
 Cl 4.64758795 2.41410241 0.26096533
 Cl 4.75201555 -2.41418040 -0.26117928
 H 2.84595835 -1.22831170 1.28146482
 H 3.15762216 0.22275793 2.07852895
 H 2.21145191 0.21751228 0.70493627
 H 6.55198203 1.22809046 -1.28518999
 H 7.18999111 -0.21207648 -0.69907550
 H 6.24712356 -0.22859527 -2.07487100
