 16
 68.417442
  C 1.495427 -0.155850 0.078117
  H 2.499497 0.554453 0.089414
  H 1.169887 -0.184503 -0.965152
  H 1.590503 -1.172005 0.463085
  H 0.809366 0.436548 0.688081
  Pt 4.160568 -0.314208 0.014184
  N 2.775748 2.159486 -0.002567
  N 6.011061 -1.053775 -0.052329
  Cl 4.194049 -0.329582 -2.416835
  Cl 4.307044 -0.329683 2.438269
  H 2.371928 2.156693 0.923766
  H 3.319243 3.007789 -0.191877
  H 2.132749 2.043326 -0.696732
  H 6.297833 -1.018703 -1.032765
  H 6.626199 -0.509029 0.543806
  H 5.960618 -2.016033 0.279164
 16
 66.968330
  C 1.498099 -0.161062 0.078838
  H 2.496087 0.547233 0.091243
  H 1.173591 -0.191536 -0.965210
  H 1.594360 -1.175237 0.462962
  H 0.812731 0.430739 0.686990
  Pt 4.154967 -0.316121 0.015090
  N 2.777705 2.166992 -0.000571
  N 6.011078 -1.053498 -0.051870
  Cl 4.189843 -0.328813 -2.415672
  Cl 4.301988 -0.333714 2.439387
  H 2.374646 2.164195 0.925239
  H 3.324340 3.021854 -0.194314
  H 2.130054 2.049951 -0.700855
  H 6.296065 -1.019676 -1.031595
  H 6.625278 -0.508452 0.540933
  H 5.960285 -2.017576 0.279562
 16
 65.503945
  C 1.500083 -0.166163 0.079127
  H 2.491531 0.538725 0.092030
  H 1.176688 -0.194400 -0.963382
  H 1.596661 -1.181122 0.462754
  H 0.813852 0.428875 0.687293
  Pt 4.152160 -0.319615 0.015077
  N 2.777757 2.175765 0.001043
  N 6.012861 -1.054057 -0.052631
  Cl 4.186568 -0.329055 -2.415751
  Cl 4.298775 -0.339218 2.439108
  H 2.375410 2.175788 0.928137
  H 3.326603 3.033358 -0.196311
  H 2.126097 2.055524 -0.705152
  H 6.298506 -1.021362 -1.032265
  H 6.626668 -0.509706 0.541366
  H 5.959329 -2.017154 0.281031
 16
 63.982606
  C 1.502192 -0.171304 0.079741
  H 2.486177 0.529374 0.093113
  H 1.179291 -0.195271 -0.962538
  H 1.598056 -1.185692 0.463053
  H 0.814624 0.424854 0.687826
  Pt 4.149700 -0.323533 0.015141
  N 2.777409 2.186104 0.002931
  N 6.015564 -1.055392 -0.053387
  Cl 4.183144 -0.330256 -2.415691
  Cl 4.296574 -0.344456 2.438940
  H 2.373999 2.189641 0.930027
  H 3.327821 3.044050 -0.197234
  H 2.121482 2.062089 -0.709070
  H 6.302248 -1.023274 -1.032494
  H 6.629877 -0.511233 0.541763
  H 5.958767 -2.018021 0.281543
 16
 62.439577
  C 1.503834 -0.175745 0.080553
  H 2.478869 0.519243 0.094710
  H 1.182948 -0.196477 -0.961781
  H 1.598809 -1.190553 0.464006
  H 0.813609 0.418708 0.687678
  Pt 4.147445 -0.327844 0.015242
  N 2.776199 2.198444 0.005062
  N 6.019337 -1.057570 -0.054462
  Cl 4.179734 -0.331410 -2.415419
  Cl 4.295845 -0.350423 2.439090
  H 2.371199 2.206282 0.931664
  H 3.328550 3.056143 -0.197817
  H 2.115986 2.070947 -0.712714
  H 6.307187 -1.026593 -1.032633
  H 6.634740 -0.513162 0.541577
  H 5.958781 -2.020126 0.282107
 16
 60.812284
  C 1.505318 -0.179950 0.081828
  H 2.469186 0.507749 0.096887
  H 1.186288 -0.198274 -0.961505
  H 1.599684 -1.194829 0.465410
  H 0.808980 0.410105 0.687264
  Pt 4.145488 -0.332059 0.015592
  N 2.775030 2.213249 0.007296
  N 6.023831 -1.060447 -0.055461
  Cl 4.176491 -0.332190 -2.414883
  Cl 4.297090 -0.357383 2.439756
  H 2.369073 2.224129 0.933039
  H 3.329471 3.069376 -0.198281
  H 2.109274 2.082533 -0.717356
  H 6.312876 -1.031016 -1.032751
  H 6.639927 -0.515291 0.541321
  H 5.960352 -2.023196 0.282626
 16
 59.149045
  C 1.505826 -0.184857 0.082843
  H 2.457071 0.494994 0.099006
  H 1.189929 -0.201641 -0.961478
  H 1.600524 -1.198800 0.466219
  H 0.804799 0.400666 0.687229
  Pt 4.142950 -0.335372 0.016608
  N 2.776039 2.229550 0.008841
  N 6.027173 -1.063279 -0.055528
  Cl 4.172868 -0.332411 -2.414145
  Cl 4.298705 -0.364507 2.441056
  H 2.370235 2.241586 0.934618
  H 3.331768 3.079840 -0.198467
  H 2.102035 2.096510 -0.724031
  H 6.316410 -1.034648 -1.033023
  H 6.642082 -0.516220 0.541589
  H 5.966021 -2.026723 0.282726
 16
 57.658369
  C 1.504756 -0.191712 0.082896
  H 2.444922 0.481494 0.100861
  H 1.189960 -0.207616 -0.962248
  H 1.599687 -1.206092 0.465065
  H 0.801648 0.390319 0.687841
  Pt 4.138321 -0.339178 0.018370
  N 2.779770 2.248122 0.008863
  N 6.030326 -1.065605 -0.054756
  Cl 4.166191 -0.332843 -2.412782
  Cl 4.297652 -0.371441 2.442830
  H 2.375247 2.260307 0.936051
  H 3.336596 3.090213 -0.199574
  H 2.098394 2.111727 -0.728818
  H 6.318805 -1.036854 -1.033364
  H 6.643577 -0.515317 0.542091
  H 5.975977 -2.029402 0.282963
 16
 56.350795
  C 1.500991 -0.200390 0.082305
  H 2.432774 0.466726 0.103062
  H 1.183764 -0.216545 -0.961126
  H 1.594047 -1.216164 0.462641
  H 0.797103 0.378590 0.688211
  Pt 4.135281 -0.344285 0.019526
  N 2.783975 2.269266 0.009762
  N 6.035775 -1.067667 -0.054403
  Cl 4.160635 -0.333993 -2.411609
  Cl 4.295483 -0.379672 2.443571
  H 2.379362 2.287257 0.937149
  H 3.344060 3.103092 -0.200242
  H 2.096530 2.126286 -0.731538
  H 6.324226 -1.039662 -1.033586
  H 6.648783 -0.514037 0.541580
  H 5.985917 -2.030970 0.283654
 16
 55.273723
  C 1.495832 -0.210047 0.083530
  H 2.423262 0.451231 0.106585
  H 1.182499 -0.223678 -0.963467
  H 1.582962 -1.224616 0.461742
  H 0.784824 0.364481 0.689983
  Pt 4.135287 -0.350809 0.020788
  N 2.787808 2.291408 0.011414
  N 6.042474 -1.069271 -0.055469
  Cl 4.157459 -0.336779 -2.410282
  Cl 4.293057 -0.388461 2.443648
  H 2.380007 2.321876 0.939374
  H 3.352450 3.111489 -0.201459
  H 2.097075 2.138226 -0.733205
  H 6.330005 -1.042633 -1.035512
  H 6.656690 -0.512891 0.539090
  H 5.994579 -2.030367 0.284319
 16
 54.302416
  C 1.494923 -0.223441 0.082982
  H 2.412924 0.437122 0.108766
  H 1.180809 -0.239261 -0.960520
  H 1.586669 -1.240576 0.459681
  H 0.786977 0.344676 0.686478
  Pt 4.126530 -0.354668 0.023100
  N 2.794663 2.314828 0.010951
  N 6.040067 -1.069042 -0.053944
  Cl 4.147379 -0.335485 -2.407751
  Cl 4.287195 -0.396308 2.446613
  H 2.386304 2.349078 0.937926
  H 3.369329 3.124724 -0.207491
  H 2.104049 2.159503 -0.734389
  H 6.324604 -1.040124 -1.035804
  H 6.650405 -0.509350 0.539348
  H 6.004803 -2.033249 0.284138
 16
 53.428195
  C 1.489736 -0.240153 0.082972
  H 2.403689 0.420712 0.112253
  H 1.174423 -0.257669 -0.967794
  H 1.581558 -1.256056 0.457052
  H 0.771674 0.328717 0.693712
  Pt 4.123401 -0.361375 0.024827
  N 2.801648 2.340790 0.013071
  N 6.042410 -1.069010 -0.053441
  Cl 4.142853 -0.337192 -2.405774
  Cl 4.282802 -0.406520 2.447827
  H 2.393386 2.386713 0.936676
  H 3.389303 3.136693 -0.212592
  H 2.109900 2.177623 -0.733969
  H 6.325532 -1.039302 -1.036806
  H 6.652544 -0.504820 0.537456
  H 6.013543 -2.031134 0.284134
 16
 52.676003
  C 1.483683 -0.255610 0.081230
  H 2.394801 0.406678 0.113894
  H 1.171493 -0.273927 -0.958888
  H 1.577115 -1.273315 0.454417
  H 0.771133 0.303196 0.687482
  Pt 4.117796 -0.366713 0.025698
  N 2.809443 2.365208 0.012428
  N 6.041277 -1.067474 -0.053462
  Cl 4.136865 -0.338760 -2.404813
  Cl 4.276316 -0.414377 2.448426
  H 2.400694 2.421726 0.939455
  H 3.410748 3.149709 -0.218565
  H 2.118064 2.197088 -0.734165
  H 6.322169 -1.037150 -1.036478
  H 6.649732 -0.499082 0.536070
  H 6.019410 -2.030414 0.285051
 16
 52.001223
  C 1.479028 -0.272329 0.081656
  H 2.387640 0.392289 0.116996
  H 1.163736 -0.291882 -0.967730
  H 1.576673 -1.290161 0.453594
  H 0.762855 0.285178 0.693326
  Pt 4.112277 -0.372823 0.027739
  N 2.817566 2.387582 0.011855
  N 6.040402 -1.064767 -0.053465
  Cl 4.132053 -0.341459 -2.402769
  Cl 4.270078 -0.423117 2.450219
  H 2.411428 2.453736 0.936361
  H 3.430869 3.161756 -0.222861
  H 2.128372 2.216362 -0.732393
  H 6.318920 -1.033008 -1.036595
  H 6.644763 -0.493084 0.534293
  H 6.026844 -2.028940 0.285493
 16
 51.430682
  C 1.473253 -0.289842 0.079591
  H 2.380044 0.377235 0.118223
  H 1.160995 -0.310121 -0.962007
  H 1.575629 -1.305622 0.450338
  H 0.754393 0.264603 0.695506
  Pt 4.106419 -0.380026 0.028730
  N 2.827669 2.409998 0.010602
  N 6.037437 -1.061806 -0.052865
  Cl 4.128216 -0.345081 -2.401741
  Cl 4.262462 -0.433274 2.451188
  H 2.423607 2.485537 0.932622
  H 3.453299 3.171558 -0.226619
  H 2.139955 2.236081 -0.732993
  H 6.314865 -1.027832 -1.038163
  H 6.638650 -0.485216 0.534892
  H 6.031391 -2.023362 0.284647
