 16
 244.050799
  C -2.531526 -0.247117 -0.175260
  H 0.644751 -0.234622 -0.036044
  H -2.569457 -0.289280 -1.260690
  H -2.678546 -1.161323 0.370457
  H -2.723028 0.698388 0.314494
  Pt 5.435182 0.375024 0.084565
  N 1.366977 -0.245944 -0.044128
  N 7.246512 1.030810 0.038997
  Cl 4.732438 2.683105 0.460367
  Cl 5.513850 -2.004042 -0.334345
  H 1.742685 -1.192422 -0.074312
  H 1.761728 0.224043 0.789662
  H 1.792776 0.274718 -0.853354
  H 7.197309 2.053307 0.103378
  H 7.717730 0.615793 0.842900
  H 7.672752 0.702957 -0.825822
 16
 223.594262
  C -2.541071 -0.243132 -0.171500
  H 0.626049 -0.232166 -0.031077
  H -2.587088 -0.278681 -1.252090
  H -2.697407 -1.167169 0.373115
  H -2.734226 0.688956 0.309977
  Pt 5.440675 0.378404 0.083818
  N 1.373581 -0.245898 -0.041261
  N 7.251393 1.036719 0.037960
  Cl 4.754965 2.679578 0.454673
  Cl 5.530620 -2.009103 -0.333986
  H 1.743173 -1.199293 -0.076383
  H 1.764100 0.228598 0.795775
  H 1.787016 0.270493 -0.840515
  H 7.210832 2.055228 0.104578
  H 7.723272 0.616677 0.839886
  H 7.675054 0.708919 -0.825437
 16
 213.332193
  C -2.544644 -0.246780 -0.164344
  H 0.603650 -0.245462 -0.029032
  H -2.585388 -0.290315 -1.263221
  H -2.702096 -1.155479 0.371243
  H -2.732286 0.693859 0.321444
  Pt 5.429112 0.381675 0.081444
  N 1.362704 -0.253544 -0.039352
  N 7.273186 1.040534 0.037185
  Cl 4.743812 2.682461 0.456465
  Cl 5.517908 -2.006668 -0.335790
  H 1.729353 -1.202391 -0.073647
  H 1.758055 0.225350 0.801373
  H 1.782179 0.272400 -0.849008
  H 7.243737 2.063373 0.107232
  H 7.741706 0.618658 0.841315
  H 7.699637 0.711709 -0.828367
 16
 198.815339
  C -2.529352 -0.245528 -0.165810
  H 0.583311 -0.254460 -0.027395
  H -2.559266 -0.286864 -1.245461
  H -2.689951 -1.168116 0.376235
  H -2.717170 0.719136 0.334978
  Pt 5.407917 0.385790 0.079569
  N 1.362668 -0.257202 -0.037886
  N 7.278352 1.040741 0.036663
  Cl 4.733727 2.692722 0.457745
  Cl 5.483220 -2.000927 -0.339975
  H 1.742231 -1.213607 -0.064449
  H 1.739705 0.215320 0.788814
  H 1.782231 0.269743 -0.864653
  H 7.253695 2.064683 0.104178
  H 7.745755 0.618098 0.854017
  H 7.702674 0.713668 -0.831893
 16
 182.681387
  C -2.513920 -0.246764 -0.170159
  H 0.555856 -0.271507 -0.035958
  H -2.528305 -0.285790 -1.241927
  H -2.676170 -1.157502 0.370951
  H -2.697036 0.719021 0.329860
  Pt 5.382438 0.387466 0.072090
  N 1.363195 -0.265167 -0.044631
  N 7.286560 1.037792 0.033200
  Cl 4.725247 2.707201 0.453437
  Cl 5.448876 -1.992531 -0.350678
  H 1.755296 -1.228120 -0.069381
  H 1.733121 0.221459 0.798856
  H 1.765493 0.261818 -0.872094
  H 7.267196 2.075177 0.098213
  H 7.753285 0.613146 0.863905
  H 7.700137 0.712802 -0.819598
 16
 173.108063
  C -2.500483 -0.246963 -0.171929
  H 0.537477 -0.270047 -0.034922
  H -2.503470 -0.288235 -1.260081
  H -2.668059 -1.159006 0.370094
  H -2.680651 0.714660 0.321717
  Pt 5.367963 0.378825 0.072933
  N 1.365302 -0.259587 -0.043187
  N 7.292013 1.036015 0.031827
  Cl 4.710919 2.700236 0.459804
  Cl 5.432335 -2.000004 -0.354485
  H 1.763155 -1.216983 -0.060904
  H 1.719093 0.219718 0.777384
  H 1.756811 0.262109 -0.868334
  H 7.265757 2.089379 0.094684
  H 7.767444 0.611022 0.868899
  H 7.697018 0.711798 -0.818715
 16
 158.752405
  C -2.484200 -0.242582 -0.163728
  H 0.503573 -0.275115 -0.034430
  H -2.473090 -0.279962 -1.238196
  H -2.659354 -1.160897 0.377729
  H -2.656658 0.714442 0.329694
  Pt 5.351528 0.367748 0.076926
  N 1.367787 -0.256724 -0.039922
  N 7.296877 1.036039 0.034576
  Cl 4.699368 2.692179 0.462034
  Cl 5.405126 -2.011646 -0.353449
  H 1.780335 -1.209604 -0.059453
  H 1.724366 0.238895 0.806857
  H 1.741305 0.259744 -0.855983
  H 7.247218 2.092720 0.100731
  H 7.773241 0.618409 0.856877
  H 7.701773 0.711883 -0.833624
 16
 150.588465
  C -2.467273 -0.242030 -0.165490
  H 0.478685 -0.270913 -0.037674
  H -2.443281 -0.279360 -1.245122
  H -2.645149 -1.150430 0.374292
  H -2.631966 0.699073 0.315748
  Pt 5.338578 0.365451 0.079088
  N 1.370272 -0.255801 -0.040493
  N 7.301427 1.038722 0.037664
  Cl 4.684096 2.690681 0.469442
  Cl 5.380798 -2.012078 -0.357405
  H 1.787345 -1.211857 -0.055672
  H 1.710972 0.237516 0.794153
  H 1.738502 0.260391 -0.867369
  H 7.234453 2.073512 0.096775
  H 7.780165 0.632251 0.855872
  H 7.703243 0.713495 -0.826722
 16
 139.589791
  C -2.469663 -0.241060 -0.164994
  H 0.441656 -0.275011 -0.036098
  H -2.447640 -0.277378 -1.247302
  H -2.651137 -1.157798 0.378463
  H -2.636844 0.708283 0.321846
  Pt 5.329868 0.363737 0.081599
  N 1.393190 -0.257952 -0.038683
  N 7.301086 1.041955 0.041079
  Cl 4.679377 2.689583 0.471525
  Cl 5.368304 -2.014366 -0.354506
  H 1.807742 -1.201953 -0.055346
  H 1.736914 0.237025 0.796848
  H 1.746142 0.257043 -0.861534
  H 7.235068 2.063350 0.099779
  H 7.775621 0.641114 0.849769
  H 7.710273 0.715014 -0.832637
 16
 137.456061
  C -2.464200 -0.241405 -0.164849
  H 0.428344 -0.274889 -0.037406
  H -2.445972 -0.277658 -1.246321
  H -2.646862 -1.153875 0.376493
  H -2.632750 0.704053 0.320128
  Pt 5.320418 0.361163 0.079492
  N 1.398641 -0.256242 -0.039771
  N 7.301254 1.041137 0.038629
  Cl 4.673936 2.687580 0.468781
  Cl 5.354695 -2.017205 -0.355695
  H 1.815846 -1.205696 -0.056107
  H 1.743614 0.238095 0.793823
  H 1.748706 0.259053 -0.864163
  H 7.236039 2.069655 0.097072
  H 7.780798 0.637780 0.853654
  H 7.707889 0.718699 -0.825059
 16
 134.708746
  C -2.446904 -0.241518 -0.166805
  H 0.411067 -0.277561 -0.038368
  H -2.435448 -0.276749 -1.249310
  H -2.635803 -1.156300 0.374951
  H -2.620150 0.706673 0.320406
  Pt 5.302388 0.356091 0.082982
  N 1.404886 -0.255169 -0.040005
  N 7.298142 1.043781 0.043111
  Cl 4.659969 2.681928 0.470736
  Cl 5.332394 -2.022898 -0.351260
  H 1.821136 -1.199468 -0.056144
  H 1.751884 0.238761 0.793572
  H 1.753003 0.260664 -0.865898
  H 7.233066 2.064889 0.101680
  H 7.774996 0.646249 0.849641
  H 7.715909 0.719553 -0.832044
 16
 132.828592
  C -2.420548 -0.239455 -0.168608
  H 0.395333 -0.278423 -0.042919
  H -2.418992 -0.275001 -1.253451
  H -2.616851 -1.158829 0.376824
  H -2.599392 0.715183 0.321300
  Pt 5.284894 0.364209 0.077394
  N 1.410907 -0.261261 -0.042067
  N 7.289513 1.039832 0.042360
  Cl 4.644020 2.688011 0.465040
  Cl 5.311774 -2.015264 -0.357197
  H 1.823386 -1.200411 -0.057475
  H 1.761342 0.234450 0.791274
  H 1.757407 0.254100 -0.865624
  H 7.225703 2.056133 0.098381
  H 7.766545 0.643709 0.850922
  H 7.706350 0.719822 -0.820847
 16
 131.101943
  C -2.387843 -0.236952 -0.166148
  H 0.359644 -0.263383 -0.040751
  H -2.396624 -0.277935 -1.246809
  H -2.585031 -1.144059 0.372324
  H -2.567621 0.699623 0.323638
  Pt 5.260052 0.357547 0.079960
  N 1.416775 -0.255623 -0.041464
  N 7.277349 1.038691 0.045242
  Cl 4.622103 2.679092 0.465501
  Cl 5.280418 -2.022312 -0.352897
  H 1.832472 -1.209711 -0.058987
  H 1.769484 0.239676 0.786073
  H 1.759153 0.260338 -0.855550
  H 7.211419 2.070404 0.103802
  H 7.758342 0.640581 0.855072
  H 7.710656 0.712438 -0.837170
 16
 129.684598
  C -2.354489 -0.238750 -0.166485
  H 0.343976 -0.261680 -0.039187
  H -2.374253 -0.275724 -1.247496
  H -2.560330 -1.148636 0.373933
  H -2.541396 0.704660 0.323262
  Pt 5.246098 0.351085 0.080579
  N 1.416895 -0.254868 -0.042410
  N 7.267837 1.039319 0.044587
  Cl 4.610923 2.672703 0.463526
  Cl 5.266002 -2.028333 -0.349327
  H 1.824909 -1.200735 -0.060235
  H 1.771962 0.238311 0.786987
  H 1.760839 0.267009 -0.866391
  H 7.200703 2.055685 0.103306
  H 7.745028 0.645644 0.845256
  H 7.696320 0.721416 -0.823667
 16
 128.786371
  C -2.309653 -0.236739 -0.166000
  H 0.327099 -0.265629 -0.043338
  H -2.337593 -0.271314 -1.257290
  H -2.521630 -1.165040 0.385300
  H -2.496861 0.725810 0.335400
  Pt 5.228134 0.346696 0.077066
  N 1.413958 -0.254721 -0.046771
  N 7.246607 1.036078 0.040739
  Cl 4.595139 2.669180 0.460642
  Cl 5.244460 -2.030451 -0.353201
  H 1.814872 -1.189672 -0.052144
  H 1.770454 0.240593 0.788925
  H 1.756666 0.267541 -0.862862
  H 7.176592 2.054123 0.096243
  H 7.736112 0.637069 0.860600
  H 7.676197 0.725856 -0.827704
