 16
 32.266035
  C 1.207737 -0.769087 0.191867
  H 1.816445 -0.219760 -0.702959
  H 0.356248 -1.296250 -0.242348
  H 1.864972 -1.451148 0.729049
  H 0.807661 -0.016157 0.889353
  Pt 3.835984 0.163844 0.029683
  N 3.154049 2.083225 0.144116
  N 5.264530 -1.422229 -0.011100
  Cl 3.849647 0.167332 -2.406930
  Cl 3.893555 0.182563 2.460578
  H 3.102369 2.344541 1.132286
  H 3.632528 2.773539 -0.425788
  H 2.243421 1.832518 -0.185936
  H 5.374030 -1.664030 -0.999287
  H 6.157122 -1.083462 0.356633
  H 4.928984 -2.218239 0.528330
 16
 29.920984
  C 1.205340 -0.774233 0.189402
  H 1.812365 -0.230803 -0.695528
  H 0.359182 -1.304006 -0.247815
  H 1.861326 -1.456492 0.730890
  H 0.802182 -0.022049 0.885773
  Pt 3.844999 0.173077 0.031324
  N 3.155060 2.085467 0.145251
  N 5.260783 -1.423892 -0.012072
  Cl 3.857965 0.176390 -2.406472
  Cl 3.906168 0.193762 2.462566
  H 3.108761 2.348022 1.134690
  H 3.635046 2.773476 -0.426104
  H 2.235514 1.842706 -0.189076
  H 5.366616 -1.667262 -0.999016
  H 6.153846 -1.089578 0.355742
  H 4.924130 -2.217384 0.527993
 16
 26.300645
  C 1.196944 -0.783277 0.186208
  H 1.803482 -0.247974 -0.685112
  H 0.358157 -1.316878 -0.254979
  H 1.849721 -1.465831 0.733671
  H 0.791081 -0.031328 0.879974
  Pt 3.863263 0.185484 0.034285
  N 3.156049 2.090196 0.147614
  N 5.255998 -1.427575 -0.014276
  Cl 3.887592 0.188194 -2.405467
  Cl 3.933046 0.211518 2.466180
  H 3.117222 2.355485 1.139081
  H 3.635200 2.774223 -0.429206
  H 2.224647 1.855867 -0.188428
  H 5.353110 -1.671587 -1.000856
  H 6.148904 -1.096873 0.349616
  H 4.914866 -2.212445 0.529245
 16
 22.563650
  C 1.181984 -0.788143 0.182686
  H 1.788325 -0.256294 -0.679596
  H 0.346854 -1.318843 -0.261639
  H 1.833029 -1.469700 0.732497
  H 0.779464 -0.038723 0.877011
  Pt 3.891067 0.195794 0.038838
  N 3.150528 2.092388 0.148798
  N 5.255316 -1.434927 -0.016057
  Cl 3.929176 0.191328 -2.402728
  Cl 3.975185 0.235091 2.471750
  H 3.109059 2.359929 1.141822
  H 3.628626 2.776311 -0.432732
  H 2.214018 1.858296 -0.178806
  H 5.348479 -1.676387 -1.003359
  H 6.145189 -1.102518 0.342312
  H 4.912983 -2.216402 0.526750
 16
 18.920329
  C 1.174364 -0.793767 0.177800
  H 1.772709 -0.261523 -0.673103
  H 0.342825 -1.326592 -0.270399
  H 1.826458 -1.467996 0.735178
  H 0.765258 -0.047474 0.868197
  Pt 3.919182 0.206668 0.040850
  N 3.143086 2.094763 0.147740
  N 5.249161 -1.441508 -0.016201
  Cl 3.961760 0.204365 -2.401301
  Cl 4.032134 0.245624 2.473953
  H 3.094413 2.366313 1.144317
  H 3.623321 2.779955 -0.435115
  H 2.201747 1.867131 -0.175007
  H 5.336079 -1.688278 -1.004476
  H 6.138299 -1.108756 0.342974
  H 4.908485 -2.221727 0.532140
 16
 15.138536
  C 1.169298 -0.798084 0.174108
  H 1.757318 -0.271493 -0.664782
  H 0.336154 -1.329451 -0.277887
  H 1.821968 -1.473622 0.725640
  H 0.760950 -0.059850 0.868720
  Pt 3.949521 0.219128 0.047710
  N 3.134173 2.096174 0.145511
  N 5.238108 -1.448275 -0.012450
  Cl 3.999987 0.229483 -2.394474
  Cl 4.080602 0.257893 2.478790
  H 3.090417 2.376165 1.142669
  H 3.608567 2.777149 -0.449800
  H 2.186644 1.878792 -0.169766
  H 5.324403 -1.697863 -1.002505
  H 6.133925 -1.116625 0.339598
  H 4.897247 -2.232321 0.536467
 16
 11.809287
  C 1.160591 -0.801533 0.166273
  H 1.743696 -0.278672 -0.664975
  H 0.326718 -1.340468 -0.286668
  H 1.815729 -1.468791 0.723686
  H 0.748971 -0.065244 0.861405
  Pt 3.987368 0.233547 0.050503
  N 3.120280 2.099659 0.148574
  N 5.230258 -1.453430 -0.015326
  Cl 4.040316 0.227448 -2.387803
  Cl 4.146599 0.283401 2.479625
  H 3.072044 2.375405 1.141754
  H 3.595448 2.784726 -0.440030
  H 2.173181 1.888432 -0.162395
  H 5.309709 -1.708600 -1.004196
  H 6.130277 -1.132350 0.338883
  H 4.888097 -2.236330 0.538236
 16
 9.033134
  C 1.135364 -0.800300 0.162801
  H 1.714751 -0.281060 -0.654953
  H 0.295669 -1.333990 -0.295407
  H 1.791553 -1.472263 0.719922
  H 0.727317 -0.064159 0.867420
  Pt 4.029474 0.243387 0.056493
  N 3.114200 2.099829 0.148296
  N 5.240437 -1.454774 -0.012971
  Cl 4.084545 0.233526 -2.378260
  Cl 4.188574 0.275959 2.483174
  H 3.067951 2.379992 1.135608
  H 3.572717 2.784347 -0.452819
  H 2.161983 1.883691 -0.159407
  H 5.318795 -1.709650 -1.000104
  H 6.151350 -1.141945 0.324060
  H 4.894602 -2.235390 0.543697
 16
 7.131644
  C 1.108974 -0.794167 0.156867
  H 1.690946 -0.278941 -0.650842
  H 0.264187 -1.323993 -0.300296
  H 1.759630 -1.473375 0.708179
  H 0.707904 -0.063817 0.869680
  Pt 4.063527 0.250297 0.059694
  N 3.108383 2.088911 0.149271
  N 5.259675 -1.458970 -0.013232
  Cl 4.100868 0.248389 -2.373417
  Cl 4.221922 0.300398 2.484670
  H 3.068601 2.372911 1.134273
  H 3.555049 2.774485 -0.456190
  H 2.154686 1.873604 -0.152936
  H 5.335440 -1.716797 -0.999570
  H 6.176982 -1.157435 0.322683
  H 4.912509 -2.234299 0.548715
 16
 5.356531
  C 1.077101 -0.794614 0.152323
  H 1.664603 -0.282695 -0.645214
  H 0.232382 -1.325443 -0.302562
  H 1.722811 -1.482012 0.700682
  H 0.678768 -0.061092 0.866727
  Pt 4.099615 0.261452 0.061785
  N 3.106516 2.081387 0.146886
  N 5.280121 -1.458348 -0.012186
  Cl 4.114534 0.263549 -2.370255
  Cl 4.257202 0.309635 2.486343
  H 3.076174 2.364178 1.134350
  H 3.547649 2.771067 -0.457477
  H 2.150293 1.874889 -0.153736
  H 5.349281 -1.721739 -0.996966
  H 6.204744 -1.170908 0.317359
  H 4.927487 -2.222106 0.559491
 16
 3.285241
  C 1.011239 -0.793556 0.147738
  H 1.613582 -0.287036 -0.638310
  H 0.162111 -1.314150 -0.310366
  H 1.645709 -1.495278 0.692324
  H 0.625647 -0.053115 0.860298
  Pt 4.160262 0.269112 0.064621
  N 3.107026 2.063650 0.147183
  N 5.328318 -1.451276 -0.012199
  Cl 4.136695 0.277377 -2.365846
  Cl 4.318669 0.327981 2.487191
  H 3.090004 2.346998 1.133132
  H 3.534693 2.763288 -0.459036
  H 2.149107 1.858902 -0.149435
  H 5.386157 -1.722660 -0.994346
  H 6.258261 -1.183361 0.314571
  H 4.961802 -2.199676 0.570029
 16
 2.282517
  C 0.965917 -0.784258 0.142874
  H 1.572626 -0.288364 -0.631402
  H 0.113505 -1.298154 -0.316770
  H 1.592292 -1.495746 0.687212
  H 0.588597 -0.040692 0.854024
  Pt 4.197127 0.272257 0.060688
  N 3.108583 2.048547 0.150820
  N 5.367878 -1.442899 -0.010458
  Cl 4.141951 0.272296 -2.368343
  Cl 4.355717 0.327477 2.484074
  H 3.095245 2.331596 1.136152
  H 3.526970 2.755763 -0.453361
  H 2.149766 1.836167 -0.149375
  H 5.418561 -1.723797 -0.991236
  H 6.300214 -1.180860 0.311761
  H 4.994331 -2.182135 0.580887
 16
 2.257700
  C 0.933031 -0.781156 0.154919
  H 1.557321 -0.283934 -0.619253
  H 0.084303 -1.288838 -0.316923
  H 1.549627 -1.498741 0.701937
  H 0.553149 -0.038156 0.864175
  Pt 4.231486 0.276543 0.110115
  N 3.104774 2.040358 0.129123
  N 5.392582 -1.438351 -0.034955
  Cl 4.182645 0.264352 -2.318458
  Cl 4.357908 0.329229 2.536002
  H 3.077079 2.333126 1.110905
  H 3.526736 2.746339 -0.473885
  H 2.161657 1.824119 -0.172442
  H 5.438680 -1.700736 -1.021192
  H 6.326399 -1.191847 0.294220
  H 5.011905 -2.185107 0.543260
 16
 1.534827
  C 0.929085 -0.778480 0.137920
  H 1.539622 -0.287454 -0.625304
  H 0.078753 -1.286732 -0.326105
  H 1.550420 -1.496154 0.680751
  H 0.551694 -0.037706 0.849620
  Pt 4.249243 0.295483 0.072810
  N 3.103746 2.032540 0.150321
  N 5.397163 -1.441665 -0.013200
  Cl 4.160014 0.281838 -2.356581
  Cl 4.404073 0.351803 2.496042
  H 3.095307 2.320937 1.134839
  H 3.512862 2.742824 -0.455005
  H 2.139503 1.810289 -0.150978
  H 5.433333 -1.725466 -0.995386
  H 6.337962 -1.204396 0.305815
  H 5.006502 -2.170461 0.581988
 16
 1.416879
  C 0.927176 -0.777939 0.137819
  H 1.538985 -0.287712 -0.625013
  H 0.077230 -1.285590 -0.326813
  H 1.546963 -1.495835 0.679904
  H 0.549997 -0.036556 0.850254
  Pt 4.249779 0.294716 0.072593
  N 3.102713 2.030420 0.150704
  N 5.398992 -1.440208 -0.013412
  Cl 4.159386 0.279888 -2.356678
  Cl 4.404228 0.351678 2.495949
  H 3.094862 2.319043 1.132858
  H 3.510945 2.741302 -0.454741
  H 2.146252 1.810099 -0.148368
  H 5.434220 -1.724456 -0.995299
  H 6.339307 -1.202487 0.305834
  H 5.008246 -2.169163 0.581958
