 8
 164.150272
  O -1.247882 -0.320089 -0.104095
  H -0.499472 0.446036 -0.119114
  H -2.263363 -0.175332 0.160602
  C 5.168978 0.597462 0.130225
  H -1.079919 -1.242963 -0.230571
  H 5.217080 0.626299 1.213246
  H 5.427412 -0.322912 -0.381323
  H 5.221082 1.531872 -0.417540
 8
 162.675664
  O -1.250456 -0.319735 -0.108129
  H -0.480683 0.423657 -0.121291
  H -2.252492 -0.142256 0.173311
  C 5.170483 0.600171 0.130707
  H -1.094781 -1.264863 -0.239678
  H 5.211890 0.627552 1.216392
  H 5.424102 -0.320568 -0.382393
  H 5.215854 1.536415 -0.417488
