 16
 50.739586
  C 1.090757 -0.828765 -0.122523
  H 2.065117 -0.234075 -0.067552
  H 0.921349 -1.133096 -1.154862
  H 1.022186 -1.666966 0.575836
  H 0.408073 -0.030850 0.179690
  Pt 3.661286 -1.097081 -0.014583
  N 2.361181 4.279517 0.014040
  N 5.646694 -1.545503 0.030112
  Cl 3.767568 -0.896845 2.399318
  Cl 3.718029 -1.366901 -2.419865
  H 1.790004 4.513141 -0.779166
  H 1.976653 3.614186 0.662256
  H 2.892994 5.031001 0.418416
  H 5.929171 -1.552734 1.014190
  H 5.796911 -2.453572 -0.412753
  H 6.148515 -0.823702 -0.493484
 16
 50.757146
  C 1.096781 -0.831871 -0.121812
  H 2.065149 -0.226545 -0.066860
  H 0.930133 -1.136435 -1.148045
  H 1.034759 -1.656802 0.565921
  H 0.404623 -0.037332 0.181290
  Pt 3.659709 -1.094981 -0.014911
  N 2.359084 4.280558 0.014396
  N 5.644316 -1.547569 0.029045
  Cl 3.767210 -0.895395 2.399050
  Cl 3.716121 -1.365021 -2.420308
  H 1.787734 4.513542 -0.778949
  H 1.975846 3.615900 0.662201
  H 2.891453 5.031739 0.417807
  H 5.927696 -1.556004 1.014161
  H 5.791961 -2.453801 -0.413457
  H 6.143915 -0.832226 -0.490460
 16
 50.638266
  C 1.099602 -0.832364 -0.122089
  H 2.064468 -0.220713 -0.066682
  H 0.933906 -1.138681 -1.151263
  H 1.039975 -1.664343 0.571794
  H 0.404484 -0.042671 0.180200
  Pt 3.657790 -1.092896 -0.014709
  N 2.359302 4.282829 0.014379
  N 5.641795 -1.548815 0.029715
  Cl 3.764910 -0.893886 2.399349
  Cl 3.715086 -1.362960 -2.420150
  H 1.788437 4.515658 -0.779233
  H 1.975708 3.617828 0.662624
  H 2.892413 5.033800 0.417507
  H 5.924588 -1.558192 1.014075
  H 5.788054 -2.457055 -0.413895
  H 6.145972 -0.829782 -0.492551
 16
 50.604939
  C 1.103316 -0.833417 -0.122167
  H 2.064106 -0.214396 -0.066519
  H 0.938654 -1.141237 -1.152848
  H 1.047096 -1.668568 0.574642
  H 0.404011 -0.048509 0.179729
  Pt 3.656293 -1.090584 -0.015083
  N 2.359029 4.284963 0.014437
  N 5.639645 -1.549827 0.029165
  Cl 3.763820 -0.892280 2.399052
  Cl 3.713831 -1.360579 -2.420616
  H 1.788196 4.517585 -0.779504
  H 1.975547 3.619692 0.663056
  H 2.892937 5.035827 0.417128
  H 5.922640 -1.560197 1.013708
  H 5.783889 -2.456643 -0.414085
  H 6.143480 -0.834075 -0.491025
 16
 50.582836
  C 1.106414 -0.834819 -0.122000
  H 2.063336 -0.209021 -0.066013
  H 0.943445 -1.143370 -1.150926
  H 1.053611 -1.667085 0.572887
  H 0.402064 -0.053191 0.179744
  Pt 3.654439 -1.089144 -0.014576
  N 2.358391 4.285997 0.014634
  N 5.637391 -1.551549 0.030046
  Cl 3.761774 -0.891208 2.399642
  Cl 3.712815 -1.359395 -2.420139
  H 1.788009 4.518256 -0.779418
  H 1.975190 3.621193 0.662991
  H 2.892763 5.036527 0.416823
  H 5.919899 -1.562775 1.014020
  H 5.780512 -2.461658 -0.414910
  H 6.146437 -0.831001 -0.493734
 16
 50.548264
  C 1.110030 -0.835775 -0.122138
  H 2.063040 -0.203242 -0.066050
  H 0.947817 -1.145779 -1.152720
  H 1.060607 -1.671526 0.575938
  H 0.401902 -0.058725 0.179438
  Pt 3.653385 -1.086819 -0.015362
  N 2.358177 4.288103 0.014647
  N 5.635592 -1.552102 0.028864
  Cl 3.761379 -0.889653 2.398927
  Cl 3.711744 -1.356886 -2.421025
  H 1.787650 4.520215 -0.779732
  H 1.975050 3.622804 0.663589
  H 2.893399 5.038577 0.416363
  H 5.918552 -1.564283 1.013461
  H 5.776496 -2.458853 -0.414813
  H 6.141670 -0.838299 -0.490316
 16
 50.511101
  C 1.113209 -0.837180 -0.121945
  H 2.062127 -0.197719 -0.065604
  H 0.952513 -1.148129 -1.151301
  H 1.067430 -1.670339 0.574551
  H 0.400060 -0.063795 0.179558
  Pt 3.651597 -1.085210 -0.015029
  N 2.357607 4.289231 0.014841
  N 5.633384 -1.553666 0.029504
  Cl 3.759515 -0.888459 2.399343
  Cl 3.710746 -1.355509 -2.420731
  H 1.787465 4.520997 -0.779681
  H 1.974712 3.624289 0.663675
  H 2.893439 5.039392 0.415984
  H 5.915930 -1.566741 1.013708
  H 5.772950 -2.462967 -0.415522
  H 6.143806 -0.836439 -0.492281
 16
 50.481946
  C 1.116646 -0.838296 -0.122076
  H 2.061432 -0.191970 -0.065586
  H 0.957092 -1.150352 -1.151308
  H 1.074469 -1.672689 0.575915
  H 0.399062 -0.069168 0.179379
  Pt 3.650276 -1.083114 -0.015475
  N 2.357262 4.290849 0.014956
  N 5.631433 -1.554572 0.029025
  Cl 3.758475 -0.887026 2.398986
  Cl 3.709871 -1.353375 -2.421254
  H 1.787209 4.522400 -0.779838
  H 1.974537 3.625874 0.663986
  H 2.893878 5.040795 0.415555
  H 5.913986 -1.568620 1.013429
  H 5.769096 -2.462818 -0.415738
  H 6.141764 -0.840162 -0.490883
