 16
 148.559928
  C -3.135776 0.856085 -2.341223
  H -1.563347 0.992273 -1.795804
  H -3.066747 0.692353 -3.413075
  H -3.554708 0.043254 -1.746300
  H -3.296003 1.875486 -2.002636
  Pt 6.162802 1.007374 0.159533
  N 5.529488 2.931598 -0.412592
  N 6.639310 -0.985085 0.629108
  Cl -0.470049 0.731203 -1.424459
  Cl 8.111333 2.362456 0.749405
  H 6.369838 3.509542 -0.278833
  H 5.231089 2.954358 -1.385646
  H 4.778656 3.255054 0.201045
  H 5.779411 -1.541626 0.577767
  H 7.312010 -1.331760 -0.047915
  H 7.032640 -1.031745 1.578975
 16
 145.862133
  C -3.152565 0.859141 -2.335680
  H -1.582430 0.993969 -1.792408
  H -3.085815 0.691077 -3.404550
  H -3.571603 0.057087 -1.743540
  H -3.313992 1.884283 -1.999270
  Pt 6.165864 1.001974 0.162485
  N 5.537704 2.936005 -0.406666
  N 6.647608 -0.975281 0.635741
  Cl -0.476123 0.723833 -1.414746
  Cl 8.119377 2.327925 0.746440
  H 6.375640 3.514671 -0.276912
  H 5.236378 2.953601 -1.372833
  H 4.787867 3.262856 0.204866
  H 5.789439 -1.526479 0.590334
  H 7.319543 -1.318163 -0.043597
  H 7.041950 -1.025511 1.570071
 16
 143.361523
  C -3.175811 0.865999 -2.333605
  H -1.608296 0.996953 -1.791289
  H -3.109425 0.702679 -3.410643
  H -3.598727 0.056862 -1.739420
  H -3.337376 1.888954 -1.992826
  Pt 6.170659 0.999992 0.160212
  N 5.552498 2.939346 -0.401665
  N 6.661528 -0.966369 0.639304
  Cl -0.485769 0.718518 -1.409387
  Cl 8.123126 2.300355 0.744321
  H 6.386268 3.516742 -0.271969
  H 5.251673 2.951881 -1.375623
  H 4.801375 3.274989 0.209680
  H 5.800110 -1.513485 0.595016
  H 7.329136 -1.303332 -0.041914
  H 7.064629 -1.027124 1.584030
 16
 141.001602
  C -3.191278 0.871105 -2.334610
  H -1.630820 1.000221 -1.793403
  H -3.123223 0.713903 -3.397717
  H -3.610635 0.064976 -1.744170
  H -3.353556 1.885117 -1.994147
  Pt 6.167355 1.006033 0.158837
  N 5.553820 2.939472 -0.397892
  N 6.671505 -0.962161 0.646275
  Cl -0.496020 0.711653 -1.404976
  Cl 8.138505 2.295600 0.746585
  H 6.399826 3.530314 -0.264293
  H 5.259364 2.946231 -1.370330
  H 4.814599 3.275118 0.196612
  H 5.799713 -1.515427 0.599294
  H 7.343172 -1.297554 -0.042746
  H 7.074925 -1.030742 1.588688
 16
 138.853213
  C -3.189667 0.871113 -2.331859
  H -1.639335 0.998608 -1.792859
  H -3.118678 0.715787 -3.395927
  H -3.603077 0.067250 -1.745261
  H -3.355496 1.887317 -1.987423
  Pt 6.161687 1.011791 0.157945
  N 5.553426 2.938640 -0.398631
  N 6.668321 -0.965032 0.650843
  Cl -0.495625 0.705540 -1.400817
  Cl 8.156665 2.305768 0.755786
  H 6.394839 3.522824 -0.265607
  H 5.262706 2.944273 -1.378871
  H 4.803436 3.286541 0.200639
  H 5.804022 -1.512456 0.601977
  H 7.343454 -1.305165 -0.045030
  H 7.066100 -1.036906 1.583316
 16
 155.077014
  C -3.189667 0.871113 -2.331859
  H -1.639335 0.998608 -1.792859
  H -3.118678 0.715787 -3.395927
  H -3.603077 0.067250 -1.745261
  H -3.355496 1.887317 -1.987423
  Pt 6.161687 1.011791 0.157945
  N 5.553426 2.938640 -0.398631
  N 6.668321 -0.965032 0.650843
  Cl -0.495625 0.705540 -1.400817
  Cl 8.156665 2.305768 0.755786
  H 6.394839 3.522824 -0.265607
  H 5.262706 2.944273 -1.378871
  H 4.803436 3.286541 0.200639
  H 5.804022 -1.512456 0.601977
  H 7.343454 -1.305165 -0.045030
  H 7.066100 -1.036906 1.583316
 16
 137.164187
  C -3.188374 0.871983 -2.329289
  H -1.649248 0.998246 -1.792635
  H -3.117155 0.716685 -3.396243
  H -3.603634 0.066839 -1.741956
  H -3.353986 1.889911 -1.983947
  Pt 6.163998 0.998597 0.158751
  N 5.534232 2.941746 -0.407532
  N 6.666161 -0.967384 0.649874
  Cl -0.478006 0.698070 -1.390936
  Cl 8.165775 2.285267 0.758050
  H 6.417778 3.558897 -0.269886
  H 5.250268 2.943028 -1.359718
  H 4.788304 3.285469 0.187155
  H 5.805704 -1.515077 0.602814
  H 7.340233 -1.306675 -0.043382
  H 7.066327 -1.036227 1.583401
 16
 132.237853
  C -3.184672 0.872537 -2.326791
  H -1.663221 0.999977 -1.793715
  H -3.113202 0.718008 -3.398542
  H -3.602558 0.063473 -1.738598
  H -3.351743 1.891552 -1.979389
  Pt 6.165692 0.997855 0.160212
  N 5.529580 2.945298 -0.408457
  N 6.662361 -0.967910 0.647681
  Cl -0.448041 0.692037 -1.376927
  Cl 8.177795 2.280590 0.763169
  H 6.407332 3.556549 -0.271789
  H 5.243693 2.946997 -1.367239
  H 4.783997 3.288129 0.187413
  H 5.801925 -1.515631 0.600698
  H 7.332554 -1.306883 -0.041802
  H 7.063326 -1.036770 1.582244
 16
 128.526050
  C -3.175336 0.872561 -2.322563
  H -1.681772 0.998998 -1.799953
  H -3.105386 0.719361 -3.383296
  H -3.589373 0.069797 -1.738939
  H -3.350736 1.886818 -1.979026
  Pt 6.161151 1.005202 0.158501
  N 5.525465 2.948190 -0.411336
  N 6.654547 -0.966916 0.648627
  Cl -0.422861 0.693261 -1.369445
  Cl 8.190971 2.279532 0.763731
  H 6.390571 3.546122 -0.276746
  H 5.243108 2.949808 -1.357852
  H 4.778009 3.290998 0.186136
  H 5.793465 -1.516443 0.603132
  H 7.335872 -1.314746 -0.050129
  H 7.053610 -1.032076 1.580353
