 14
 87.323380
  O 2.224839 0.191519 -0.066217
  H 1.698091 0.904525 -0.540209
  H 1.497901 -0.365136 0.348663
  Pt 4.001811 -0.039355 -0.043965
  N 4.178758 2.032730 -0.064687
  N 3.978832 -2.115148 0.125646
  Cl 4.023076 -0.107223 2.538852
  Cl 4.463733 -0.008871 -2.554369
  H 4.246807 2.295368 -1.051460
  H 3.397147 2.487955 0.408027
  H 5.051619 2.253588 0.424327
  H 4.034197 -2.315430 1.132030
  H 3.159372 -2.534158 -0.288633
  H 4.813941 -2.427101 -0.365624
 14
 71.653258
  O 2.181679 0.196440 -0.064342
  H 1.665422 0.909476 -0.536750
  H 1.468585 -0.357109 0.355304
  Pt 4.014092 -0.034814 -0.043827
  N 4.189140 2.031739 -0.068396
  N 3.990535 -2.118278 0.130396
  Cl 4.024723 -0.114825 2.545677
  Cl 4.488652 0.010780 -2.561340
  H 4.258891 2.289356 -1.058115
  H 3.396407 2.477093 0.408458
  H 5.062023 2.257520 0.410928
  H 4.048641 -2.327225 1.133132
  H 3.160361 -2.529231 -0.288144
  H 4.820971 -2.437660 -0.360599
 14
 58.690617
  O 2.138049 0.202619 -0.065972
  H 1.635578 0.906967 -0.540482
  H 1.433025 -0.355275 0.363794
  Pt 4.026838 -0.036626 -0.046747
  N 4.203111 2.034265 -0.071587
  N 4.003086 -2.124780 0.130859
  Cl 4.019554 -0.116394 2.531156
  Cl 4.495283 0.011442 -2.545273
  H 4.270924 2.302895 -1.059841
  H 3.410014 2.471873 0.413832
  H 5.073282 2.264557 0.408673
  H 4.063067 -2.324609 1.118690
  H 3.171917 -2.528255 -0.277873
  H 4.826397 -2.455417 -0.356849
 14
 46.257803
  O 2.086909 0.209227 -0.062449
  H 1.590168 0.909636 -0.541175
  H 1.400485 -0.351439 0.368669
  Pt 4.042764 -0.035178 -0.048940
  N 4.221853 2.035521 -0.070949
  N 4.019419 -2.125858 0.127211
  Cl 4.020214 -0.114743 2.515837
  Cl 4.492610 0.011630 -2.526548
  H 4.292949 2.301906 -1.065571
  H 3.420249 2.467800 0.411079
  H 5.084435 2.276341 0.411347
  H 4.069389 -2.336544 1.128309
  H 3.181726 -2.526712 -0.289937
  H 4.846954 -2.468326 -0.354505
 14
 36.963431
  O 2.037769 0.217808 -0.062300
  H 1.549897 0.921741 -0.556017
  H 1.367832 -0.331720 0.366677
  Pt 4.057880 -0.033615 -0.049011
  N 4.235231 2.033695 -0.066537
  N 4.036422 -2.134437 0.126063
  Cl 4.017389 -0.097516 2.490687
  Cl 4.491561 0.005519 -2.515317
  H 4.300229 2.303150 -1.055458
  H 3.430000 2.450306 0.422537
  H 5.097314 2.283432 0.416017
  H 4.096123 -2.338162 1.134163
  H 3.194362 -2.534258 -0.283015
  H 4.858115 -2.492685 -0.366110
 14
 29.054067
  O 1.990918 0.232451 -0.062442
  H 1.512002 0.939336 -0.558274
  H 1.322596 -0.308900 0.376136
  Pt 4.075887 -0.039462 -0.048170
  N 4.248049 2.032208 -0.062208
  N 4.058749 -2.141868 0.124483
  Cl 4.008108 -0.092669 2.454585
  Cl 4.489011 -0.010834 -2.506604
  H 4.306882 2.311287 -1.045795
  H 3.440918 2.428947 0.427567
  H 5.108227 2.292742 0.418511
  H 4.112669 -2.333947 1.131323
  H 3.217387 -2.538891 -0.288109
  H 4.878720 -2.517139 -0.358624
 14
 21.922996
  O 1.937213 0.259155 -0.052674
  H 1.474012 0.955980 -0.568764
  H 1.258542 -0.278262 0.387535
  Pt 4.094380 -0.050104 -0.046191
  N 4.256511 2.025604 -0.057471
  N 4.081582 -2.149572 0.117602
  Cl 4.015961 -0.075847 2.432164
  Cl 4.501667 -0.044921 -2.489751
  H 4.319725 2.309865 -1.039231
  H 3.445095 2.402632 0.427017
  H 5.111492 2.296140 0.431560
  H 4.140031 -2.336322 1.121843
  H 3.233243 -2.544593 -0.294015
  H 4.900671 -2.516492 -0.367244
 14
 16.410203
  O 1.879524 0.280630 -0.054228
  H 1.430229 0.991508 -0.560736
  H 1.198241 -0.245627 0.396195
  Pt 4.113916 -0.063206 -0.045370
  N 4.261956 2.015331 -0.062073
  N 4.103409 -2.153282 0.113634
  Cl 4.027330 -0.090707 2.415208
  Cl 4.533813 -0.060865 -2.459669
  H 4.314428 2.301668 -1.042427
  H 3.450141 2.386796 0.426617
  H 5.116572 2.290664 0.423454
  H 4.156928 -2.333940 1.120408
  H 3.255826 -2.548684 -0.299897
  H 4.927809 -2.517024 -0.368737
 14
 12.476496
  O 1.825781 0.302758 -0.045586
  H 1.379600 1.005564 -0.565247
  H 1.139341 -0.223342 0.401365
  Pt 4.134827 -0.066473 -0.041180
  N 4.272194 2.006853 -0.063953
  N 4.124119 -2.157090 0.111321
  Cl 4.043529 -0.092101 2.412204
  Cl 4.549073 -0.063508 -2.445463
  H 4.330959 2.289357 -1.044722
  H 3.454484 2.380187 0.416395
  H 5.121905 2.283860 0.427883
  H 4.173579 -2.338041 1.116613
  H 3.272206 -2.558358 -0.309484
  H 4.948525 -2.516403 -0.367768
 14
 9.139697
  O 1.765471 0.318980 -0.046117
  H 1.314122 1.018115 -0.570202
  H 1.080598 -0.202206 0.411015
  Pt 4.157689 -0.073524 -0.037351
  N 4.284133 2.000259 -0.060832
  N 4.143111 -2.159800 0.103111
  Cl 4.046590 -0.079910 2.400311
  Cl 4.573413 -0.090199 -2.431029
  H 4.336695 2.287446 -1.040172
  H 3.473505 2.380186 0.422315
  H 5.136762 2.274557 0.430048
  H 4.196291 -2.342101 1.110220
  H 3.291948 -2.561375 -0.310299
  H 4.969796 -2.517169 -0.378639
 14
 8.240493
  O 1.747401 0.317655 -0.047255
  H 1.293163 1.010542 -0.573415
  H 1.064723 -0.209446 0.414058
  Pt 4.164451 -0.073924 -0.035866
  N 4.293127 2.001228 -0.060870
  N 4.143999 -2.156916 0.102042
  Cl 4.050725 -0.079929 2.404207
  Cl 4.578268 -0.090821 -2.431296
  H 4.345967 2.288721 -1.040427
  H 3.481487 2.383381 0.422296
  H 5.144956 2.273171 0.429805
  H 4.196349 -2.340573 1.107584
  H 3.296947 -2.554998 -0.309074
  H 4.968560 -2.514831 -0.379410
 14
 7.204563
  O 1.721486 0.315715 -0.048479
  H 1.262403 1.003295 -0.577352
  H 1.045450 -0.215389 0.415091
  Pt 4.173772 -0.074081 -0.033509
  N 4.303917 2.002058 -0.060746
  N 4.147122 -2.153503 0.101379
  Cl 4.056911 -0.079195 2.409464
  Cl 4.584198 -0.091437 -2.431514
  H 4.356538 2.289706 -1.040065
  H 3.492974 2.385579 0.421455
  H 5.156472 2.272096 0.430376
  H 4.198842 -2.339360 1.106877
  H 3.298855 -2.549549 -0.309535
  H 4.971184 -2.512674 -0.381064
 14
 5.873478
  O 1.682162 0.314304 -0.051210
  H 1.216567 0.994267 -0.581493
  H 1.014680 -0.224770 0.415686
  Pt 4.188311 -0.073329 -0.029881
  N 4.320161 2.002642 -0.060623
  N 4.152637 -2.149174 0.100665
  Cl 4.066414 -0.076967 2.416510
  Cl 4.593150 -0.091446 -2.431799
  H 4.372464 2.290429 -1.039850
  H 3.509436 2.388336 0.420796
  H 5.173224 2.269888 0.430693
  H 4.203378 -2.338892 1.105521
  H 3.302340 -2.542018 -0.309937
  H 4.975198 -2.510009 -0.382699
 14
 4.386509
  O 1.624543 0.314599 -0.061493
  H 1.147781 0.986743 -0.593105
  H 0.970380 -0.233509 0.410322
  Pt 4.213478 -0.072339 -0.036000
  N 4.342000 2.002326 -0.054811
  N 4.161668 -2.145117 0.106431
  Cl 4.087300 -0.076625 2.413509
  Cl 4.598924 -0.088112 -2.444847
  H 4.391164 2.294040 -1.032917
  H 3.532306 2.387258 0.428147
  H 5.197007 2.265832 0.436012
  H 4.212988 -2.337119 1.110910
  H 3.309350 -2.533856 -0.300193
  H 4.981236 -2.510859 -0.379587
 14
 3.352851
  O 1.578313 0.319261 -0.065584
  H 1.095474 0.974831 -0.597129
  H 0.932203 -0.239891 0.412812
  Pt 4.234415 -0.069770 -0.025623
  N 4.360659 2.002149 -0.056041
  N 4.170913 -2.143004 0.103168
  Cl 4.098144 -0.068978 2.424495
  Cl 4.609121 -0.089080 -2.436566
  H 4.408968 2.294672 -1.034728
  H 3.548685 2.386716 0.425618
  H 5.213449 2.265409 0.434705
  H 4.219966 -2.341424 1.105618
  H 3.312976 -2.525178 -0.305446
  H 4.986836 -2.512452 -0.382920
