 14
 23.326655
  O 1.701969 -0.630298 0.308190
  H 1.352759 -0.443210 -0.587004
  H 1.211619 -1.329979 0.777719
  Pt 3.788711 -0.860487 0.223572
  N 2.837704 2.471655 -0.458128
  N 5.817158 -1.071606 0.121241
  Cl 4.015525 -0.990921 2.632326
  Cl 3.534821 -0.774312 -2.195709
  H 3.205091 2.265882 -1.371258
  H 2.427320 1.699178 0.035113
  H 3.327405 3.153116 0.096150
  H 6.147245 -1.126439 1.091330
  H 6.032396 -1.933335 -0.382727
  H 6.230933 -0.273383 -0.361510
 14
 23.277514
  O 1.700586 -0.631843 0.306815
  H 1.352083 -0.454272 -0.597235
  H 1.212652 -1.322713 0.780404
  Pt 3.789034 -0.859801 0.226110
  N 2.837164 2.475059 -0.458419
  N 5.817435 -1.071927 0.122612
  Cl 4.018795 -0.994410 2.634079
  Cl 3.528176 -0.771362 -2.192747
  H 3.209421 2.264692 -1.371485
  H 2.425956 1.700034 0.037610
  H 3.329111 3.153107 0.095560
  H 6.146746 -1.126028 1.086621
  H 6.033628 -1.931291 -0.380479
  H 6.229867 -0.273383 -0.360139
 14
 23.225449
  O 1.700149 -0.629278 0.301054
  H 1.359375 -0.464470 -0.596918
  H 1.205075 -1.322390 0.786941
  Pt 3.788558 -0.859534 0.225444
  N 2.835163 2.476923 -0.460801
  N 5.817429 -1.071737 0.121795
  Cl 4.019440 -0.998058 2.632949
  Cl 3.522654 -0.768630 -2.193041
  H 3.209974 2.263729 -1.367117
  H 2.426606 1.705866 0.033362
  H 3.331174 3.154742 0.095816
  H 6.150462 -1.126028 1.094507
  H 6.035970 -1.933360 -0.383640
  H 6.228625 -0.271914 -0.361044
 14
 23.100078
  O 1.700246 -0.630022 0.300931
  H 1.359279 -0.473634 -0.604983
  H 1.209257 -1.312983 0.789220
  Pt 3.788286 -0.859859 0.226998
  N 2.833942 2.478891 -0.460530
  N 5.816803 -1.071692 0.122342
  Cl 4.020775 -1.002069 2.634160
  Cl 3.518457 -0.766261 -2.191048
  H 3.213037 2.262225 -1.367605
  H 2.426199 1.707001 0.034885
  H 3.331205 3.153334 0.095331
  H 6.150107 -1.125855 1.093161
  H 6.036010 -1.931894 -0.383217
  H 6.227053 -0.271321 -0.360339
 14
 23.083723
  O 1.699650 -0.631837 0.298660
  H 1.361386 -0.485130 -0.609299
  H 1.204977 -1.314457 0.796630
  Pt 3.788316 -0.859030 0.227723
  N 2.835156 2.483398 -0.463007
  N 5.816560 -1.071345 0.123697
  Cl 4.020709 -1.004054 2.634657
  Cl 3.516056 -0.763265 -2.190140
  H 3.217752 2.263118 -1.366452
  H 2.425125 1.706623 0.036356
  H 3.335983 3.156834 0.094557
  H 6.146503 -1.124928 1.084680
  H 6.035947 -1.928817 -0.380356
  H 6.226534 -0.271249 -0.358400
 14
 22.985169
  O 1.699396 -0.630133 0.297368
  H 1.362118 -0.491664 -0.613283
  H 1.208041 -1.301847 0.797099
  Pt 3.787767 -0.860476 0.227911
  N 2.831812 2.483293 -0.461989
  N 5.816823 -1.071171 0.122675
  Cl 4.021504 -1.008554 2.634482
  Cl 3.511809 -0.762343 -2.189575
  H 3.217907 2.259975 -1.365383
  H 2.425304 1.711099 0.034948
  H 3.333721 3.153308 0.094999
  H 6.151156 -1.125472 1.093412
  H 6.037853 -1.930549 -0.383870
  H 6.225444 -0.269605 -0.359489
 14
 22.921399
  O 1.699636 -0.630434 0.295749
  H 1.363221 -0.499992 -0.618020
  H 1.205722 -1.300257 0.803776
  Pt 3.787892 -0.860366 0.228062
  N 2.831503 2.485784 -0.463185
  N 5.816534 -1.070925 0.123009
  Cl 4.021373 -1.011021 2.634485
  Cl 3.510372 -0.760365 -2.189221
  H 3.220517 2.259586 -1.363970
  H 2.425254 1.712662 0.034927
  H 3.335928 3.154308 0.094717
  H 6.150054 -1.125219 1.090927
  H 6.037873 -1.928785 -0.383178
  H 6.224776 -0.269115 -0.358772
 14
 22.889747
  O 1.698957 -0.631669 0.293709
  H 1.365930 -0.510084 -0.615954
  H 1.206857 -1.293878 0.804912
  Pt 3.787278 -0.860290 0.227956
  N 2.830760 2.488559 -0.464515
  N 5.816159 -1.070538 0.123350
  Cl 4.019987 -1.013576 2.634258
  Cl 3.508560 -0.758336 -2.189145
  H 3.222992 2.259396 -1.363259
  H 2.423907 1.713168 0.035466
  H 3.337610 3.155528 0.094409
  H 6.149168 -1.124974 1.089820
  H 6.038423 -1.929040 -0.383781
  H 6.224067 -0.268406 -0.357918
 14
 22.881983
  O 1.699672 -0.629839 0.293214
  H 1.362344 -0.514192 -0.629837
  H 1.202626 -1.292085 0.815857
  Pt 3.788013 -0.861025 0.228360
  N 2.829391 2.489231 -0.463875
  N 5.817092 -1.070463 0.122702
  Cl 4.021275 -1.016620 2.634425
  Cl 3.507073 -0.757523 -2.188475
  H 3.224419 2.257082 -1.361451
  H 2.425420 1.717518 0.034507
  H 3.337835 3.153287 0.094583
  H 6.151920 -1.125292 1.091882
  H 6.039418 -1.926651 -0.384006
  H 6.224157 -0.267566 -0.358578
 14
 22.783082
  O 1.699312 -0.631181 0.291235
  H 1.365705 -0.523243 -0.625127
  H 1.204954 -1.285766 0.815468
  Pt 3.787416 -0.860957 0.227994
  N 2.828667 2.491374 -0.465360
  N 5.816367 -1.070195 0.123070
  Cl 4.019354 -1.018820 2.634016
  Cl 3.506268 -0.755813 -2.188729
  H 3.226040 2.257113 -1.360496
  H 2.424219 1.717602 0.034610
  H 3.339381 3.154835 0.094395
  H 6.150233 -1.125147 1.090221
  H 6.039405 -1.926813 -0.384332
  H 6.223334 -0.267128 -0.357658
 14
 22.745955
  O 1.699007 -0.631929 0.289967
  H 1.365571 -0.530608 -0.627158
  H 1.204042 -1.282546 0.820085
  Pt 3.787256 -0.860574 0.227808
  N 2.828219 2.494104 -0.465824
  N 5.816366 -1.069707 0.123041
  Cl 4.018293 -1.020918 2.633721
  Cl 3.505509 -0.753633 -2.188763
  H 3.228909 2.256905 -1.360889
  H 2.423475 1.718577 0.035638
  H 3.340233 3.154808 0.093735
  H 6.150545 -1.125113 1.090814
  H 6.040075 -1.927266 -0.385626
  H 6.223153 -0.266241 -0.357242
 14
 22.730194
  O 1.699570 -0.631338 0.288412
  H 1.365998 -0.536709 -0.629909
  H 1.205112 -1.275311 0.822873
  Pt 3.787420 -0.861975 0.227569
  N 2.826286 2.493477 -0.466920
  N 5.816608 -1.070167 0.122935
  Cl 4.017600 -1.023421 2.633473
  Cl 3.505241 -0.754676 -2.188917
  H 3.227345 2.254893 -1.355952
  H 2.424118 1.721392 0.033000
  H 3.342029 3.155599 0.095161
  H 6.150339 -1.125428 1.088671
  H 6.040116 -1.924030 -0.383857
  H 6.222873 -0.266443 -0.357233
 14
 22.689250
  O 1.699112 -0.632364 0.287781
  H 1.365733 -0.541516 -0.630018
  H 1.203547 -1.275580 0.826937
  Pt 3.787195 -0.860688 0.227381
  N 2.826764 2.496963 -0.466473
  N 5.816374 -1.069294 0.122961
  Cl 4.016484 -1.024677 2.633191
  Cl 3.505045 -0.751269 -2.188985
  H 3.231891 2.255651 -1.359930
  H 2.423056 1.721243 0.035722
  H 3.341286 3.154348 0.093401
  H 6.150604 -1.125305 1.090489
  H 6.040779 -1.926412 -0.386547
  H 6.222783 -0.265237 -0.356604
 14
 22.656615
  O 1.699205 -0.632808 0.286824
  H 1.365078 -0.546740 -0.632391
  H 1.204203 -1.271379 0.829537
  Pt 3.787219 -0.861135 0.227077
  N 2.825861 2.497515 -0.467708
  N 5.816489 -1.069431 0.122812
  Cl 4.015748 -1.025967 2.632888
  Cl 3.504936 -0.751439 -2.189236
  H 3.231207 2.255058 -1.356696
  H 2.422882 1.722205 0.034818
  H 3.343358 3.155987 0.094029
  H 6.150829 -1.125431 1.090262
  H 6.040923 -1.925384 -0.386162
  H 6.222716 -0.265190 -0.356747
 14
 22.635007
  O 1.699704 -0.631919 0.285253
  H 1.366148 -0.551901 -0.632207
  H 1.203696 -1.266109 0.833580
  Pt 3.787314 -0.861689 0.226739
  N 2.824460 2.498341 -0.466847
  N 5.816681 -1.069311 0.122879
  Cl 4.014281 -1.029191 2.632508
  Cl 3.505387 -0.750011 -2.189453
  H 3.233588 2.253180 -1.357492
  H 2.423448 1.725383 0.034199
  H 3.341779 3.152908 0.093772
  H 6.150256 -1.125852 1.088140
  H 6.041323 -1.923275 -0.385928
  H 6.222590 -0.264693 -0.355836
