 16
 36.186997
  C 1.574506 -0.033440 0.557884
  H 2.339154 0.467313 -1.613800
  H 0.988143 -0.198899 -0.357350
  H 1.281119 -0.807943 1.281902
  H 1.271614 0.933152 0.980043
  Pt 3.644934 -0.134650 0.385875
  N 3.549400 -2.218323 0.287067
  N 3.922391 1.932890 0.366822
  Cl 2.589333 1.102761 -2.778748
  Cl 6.144631 -0.398485 0.504198
  H 4.242895 -2.559427 0.955377
  H 2.623403 -2.589609 0.495293
  H 3.838198 -2.484990 -0.654733
  H 3.398207 2.368068 -0.392326
  H 3.672748 2.348604 1.263049
  H 4.929702 2.031133 0.207555
 16
 36.000422
  C 1.572768 -0.028091 0.561803
  H 2.348374 0.466487 -1.619545
  H 0.988351 -0.196648 -0.356347
  H 1.275542 -0.801085 1.288066
  H 1.267998 0.942859 0.980552
  Pt 3.644653 -0.140575 0.385887
  N 3.551337 -2.222856 0.287096
  N 3.920026 1.928884 0.367344
  Cl 2.592791 1.108598 -2.779301
  Cl 6.145197 -0.389402 0.495010
  H 4.246201 -2.563061 0.955273
  H 2.625640 -2.594731 0.496075
  H 3.839838 -2.489129 -0.654331
  H 3.396361 2.363062 -0.393333
  H 3.667685 2.345691 1.264740
  H 4.927700 2.029199 0.209501
 16
 35.852275
  C 1.572311 -0.023461 0.566532
  H 2.359226 0.465924 -1.623625
  H 0.992835 -0.194436 -0.349702
  H 1.272904 -0.791941 1.292232
  H 1.268426 0.943202 0.978419
  Pt 3.642756 -0.143207 0.386490
  N 3.550960 -2.226449 0.288057
  N 3.915862 1.925503 0.368369
  Cl 2.598026 1.116838 -2.780550
  Cl 6.146821 -0.379228 0.486352
  H 4.245222 -2.565337 0.954833
  H 2.625923 -2.598645 0.497614
  H 3.839806 -2.493321 -0.654914
  H 3.393760 2.357919 -0.392628
  H 3.662767 2.339781 1.259007
  H 4.922969 2.027358 0.212482
 16
 35.725247
  C 1.573086 -0.021788 0.569495
  H 2.369822 0.463591 -1.628629
  H 0.993652 -0.196613 -0.351799
  H 1.270764 -0.790734 1.298986
  H 1.266875 0.953756 0.980570
  Pt 3.642086 -0.145995 0.385413
  N 3.550521 -2.229554 0.287630
  N 3.914020 1.922509 0.367561
  Cl 2.602220 1.122978 -2.783023
  Cl 6.147291 -0.372605 0.474986
  H 4.247675 -2.569274 0.956161
  H 2.625145 -2.601991 0.498237
  H 3.837679 -2.495846 -0.652351
  H 3.391530 2.354960 -0.396755
  H 3.655362 2.342615 1.269840
  H 4.922894 2.024999 0.212832
 16
 35.580710
  C 1.572579 -0.021188 0.572202
  H 2.376905 0.462577 -1.631019
  H 0.995101 -0.198016 -0.349763
  H 1.268979 -0.788914 1.302519
  H 1.265945 0.954978 0.980609
  Pt 3.641216 -0.146746 0.386232
  N 3.550084 -2.230221 0.288599
  N 3.912446 1.921848 0.368751
  Cl 2.604999 1.127600 -2.782986
  Cl 6.146821 -0.368065 0.469702
  H 4.245843 -2.569049 0.955600
  H 2.625110 -2.602640 0.499493
  H 3.837709 -2.497201 -0.653450
  H 3.391769 2.353278 -0.395212
  H 3.654422 2.338470 1.262369
  H 4.920739 2.024797 0.215693
 16
 35.458820
  C 1.572312 -0.020584 0.575254
  H 2.386786 0.460799 -1.634892
  H 0.999505 -0.199224 -0.343022
  H 1.268303 -0.783298 1.304210
  H 1.267840 0.948956 0.976690
  Pt 3.639841 -0.147670 0.386171
  N 3.548337 -2.231174 0.289165
  N 3.910744 1.920859 0.368902
  Cl 2.608376 1.133579 -2.784033
  Cl 6.144930 -0.363221 0.460142
  H 4.244918 -2.570411 0.956465
  H 2.623513 -2.603290 0.500783
  H 3.835003 -2.498320 -0.652034
  H 3.391194 2.351856 -0.396656
  H 3.649865 2.339177 1.264734
  H 4.919230 2.023773 0.217570
 16
 35.328611
  C 1.571900 -0.021127 0.578513
  H 2.397515 0.458540 -1.637674
  H 0.998380 -0.203501 -0.346048
  H 1.265188 -0.785794 1.312181
  H 1.264032 0.959481 0.980560
  Pt 3.639244 -0.148300 0.386662
  N 3.548185 -2.232144 0.289977
  N 3.909078 1.920023 0.369862
  Cl 2.612801 1.139393 -2.784187
  Cl 6.145290 -0.358462 0.451737
  H 4.243661 -2.570719 0.955849
  H 2.623341 -2.604384 0.502217
  H 3.835053 -2.500061 -0.653172
  H 3.391223 2.350131 -0.396295
  H 3.647721 2.335802 1.258960
  H 4.918128 2.023406 0.220488
 16
 35.176940
  C 1.571335 -0.021161 0.581333
  H 2.407615 0.456509 -1.641044
  H 1.001489 -0.205212 -0.340418
  H 1.264334 -0.781378 1.314318
  H 1.265313 0.954238 0.977367
  Pt 3.637955 -0.148947 0.386201
  N 3.546430 -2.232677 0.290148
  N 3.907677 1.919505 0.369537
  Cl 2.616325 1.144606 -2.784799
  Cl 6.144684 -0.355802 0.442300
  H 4.243162 -2.572026 0.956740
  H 2.622050 -2.604271 0.503018
  H 3.832055 -2.500580 -0.651401
  H 3.391101 2.349149 -0.397990
  H 3.643140 2.337744 1.262400
  H 4.916081 2.022638 0.221936
 16
 35.059845
  C 1.571072 -0.021836 0.584116
  H 2.417463 0.454418 -1.643246
  H 1.002567 -0.208230 -0.338737
  H 1.263046 -0.780910 1.319073
  H 1.264382 0.956361 0.977753
  Pt 3.636959 -0.149347 0.386370
  N 3.545704 -2.233144 0.290631
  N 3.905954 1.919137 0.370060
  Cl 2.620047 1.149268 -2.784731
  Cl 6.143251 -0.352624 0.435082
  H 4.241850 -2.572214 0.956368
  H 2.620077 -2.605159 0.504274
  H 3.831385 -2.501647 -0.652255
  H 3.389840 2.348854 -0.399636
  H 3.639895 2.336880 1.260826
  H 4.917276 2.022727 0.223773
 16
 34.959512
  C 1.570578 -0.021810 0.586875
  H 2.428121 0.452325 -1.645917
  H 1.003020 -0.210573 -0.337153
  H 1.261513 -0.778943 1.323767
  H 1.264026 0.958019 0.977357
  Pt 3.636012 -0.149763 0.385625
  N 3.544272 -2.233659 0.290441
  N 3.904889 1.918547 0.369468
  Cl 2.624098 1.154129 -2.785095
  Cl 6.142847 -0.350440 0.425954
  H 4.241763 -2.573703 0.957000
  H 2.622371 -2.603724 0.503889
  H 3.828405 -2.501929 -0.649967
  H 3.392465 2.346002 -0.397887
  H 3.637174 2.336904 1.259723
  H 4.909226 2.021289 0.225694
 16
 34.863681
  C 1.569628 -0.023078 0.590176
  H 2.438987 0.449766 -1.647318
  H 1.004628 -0.213962 -0.333060
  H 1.260102 -0.777826 1.328086
  H 1.262868 0.956569 0.976974
  Pt 3.634789 -0.150115 0.386225
  N 3.543988 -2.233958 0.291185
  N 3.902391 1.918659 0.370617
  Cl 2.628224 1.158423 -2.784094
  Cl 6.142374 -0.347584 0.419517
  H 4.239546 -2.572790 0.955627
  H 2.615211 -2.606832 0.506631
  H 3.829438 -2.503520 -0.653760
  H 3.386811 2.348878 -0.404345
  H 3.632251 2.336926 1.260279
  H 4.919549 2.023188 0.227062
 16
 34.690124
  C 1.569299 -0.023172 0.592466
  H 2.449510 0.447545 -1.649405
  H 1.005230 -0.216454 -0.331399
  H 1.259154 -0.776312 1.332625
  H 1.262349 0.959009 0.976620
  Pt 3.633629 -0.150313 0.385248
  N 3.542292 -2.234232 0.290651
  N 3.901269 1.918216 0.369875
  Cl 2.631584 1.162425 -2.784356
  Cl 6.141108 -0.346180 0.411037
  H 4.239437 -2.574257 0.956290
  H 2.618776 -2.604547 0.505388
  H 3.826097 -2.503346 -0.651135
  H 3.390316 2.345653 -0.401652
  H 3.629475 2.336905 1.258542
  H 4.911266 2.021862 0.229028
 16
 34.583432
  C 1.569179 -0.023439 0.595320
  H 2.459924 0.445291 -1.650359
  H 1.005491 -0.219084 -0.329710
  H 1.258687 -0.774570 1.337220
  H 1.262566 0.959050 0.976239
  Pt 3.633101 -0.150452 0.385009
  N 3.541787 -2.234432 0.290695
  N 3.900264 1.918108 0.369978
  Cl 2.635405 1.165803 -2.783645
  Cl 6.140529 -0.344394 0.404386
  H 4.238326 -2.574220 0.955372
  H 2.615488 -2.605587 0.506557
  H 3.825539 -2.504075 -0.652276
  H 3.389410 2.346063 -0.404238
  H 3.626729 2.337163 1.258364
  H 4.908375 2.021640 0.230940
 16
 34.499712
  C 1.567432 -0.024198 0.597303
  H 2.469214 0.442737 -1.651647
  H 1.006078 -0.221618 -0.325934
  H 1.256606 -0.773459 1.340809
  H 1.260342 0.960380 0.975704
  Pt 3.630955 -0.150811 0.384280
  N 3.540003 -2.234678 0.289995
  N 3.897534 1.918019 0.369780
  Cl 2.638141 1.168738 -2.783331
  Cl 6.138589 -0.343004 0.397996
  H 4.238007 -2.575434 0.955988
  H 2.619253 -2.603550 0.504714
  H 3.822923 -2.503954 -0.651152
  H 3.389662 2.344053 -0.402763
  H 3.622201 2.336854 1.256781
  H 4.913857 2.022744 0.231308
 16
 34.391049
  C 1.568521 -0.024126 0.600515
  H 2.481630 0.440295 -1.651950
  H 1.007080 -0.224326 -0.324241
  H 1.257572 -0.771271 1.346198
  H 1.261784 0.961040 0.975533
  Pt 3.631550 -0.150657 0.383980
  N 3.540303 -2.234777 0.290067
  N 3.897751 1.917910 0.369847
  Cl 2.642965 1.171686 -2.782303
  Cl 6.139456 -0.341324 0.390986
  H 4.236265 -2.574547 0.953596
  H 2.610910 -2.606640 0.507407
  H 3.823628 -2.505038 -0.653877
  H 3.388670 2.345833 -0.407814
  H 3.620538 2.337547 1.257286
  H 4.902182 2.021329 0.234646
