 16
 32.768498
  C 1.516138 -0.227253 0.500017
  H 2.787646 0.225006 -1.469412
  H 1.017024 -0.407044 -0.458605
  H 1.342787 -1.093175 1.154605
  H 1.052204 0.650392 0.967728
  Pt 3.580305 -0.037887 0.377436
  N 3.510452 1.850087 1.250799
  N 3.850064 -1.878682 -0.585943
  Cl 2.542231 0.464472 -2.845543
  Cl 6.078959 0.062282 0.675432
  H 4.330212 1.890185 1.858775
  H 3.609680 2.541868 0.506671
  H 2.647401 2.016225 1.776105
  H 3.165688 -2.044654 -1.325744
  H 4.794421 -1.801644 -0.979299
  H 3.831823 -2.637883 0.095003
 16
 32.418151
  C 1.514543 -0.234705 0.504895
  H 2.823674 0.241596 -1.467038
  H 1.025280 -0.411410 -0.459431
  H 1.337830 -1.102374 1.156150
  H 1.047202 0.642234 0.970997
  Pt 3.577250 -0.039489 0.377335
  N 3.505439 1.850175 1.247860
  N 3.845362 -1.881868 -0.581749
  Cl 2.548322 0.485931 -2.840815
  Cl 6.077324 0.069191 0.655001
  H 4.330458 1.895196 1.857906
  H 3.601131 2.539868 0.501969
  H 2.654977 2.013120 1.765768
  H 3.161163 -2.048440 -1.318417
  H 4.778761 -1.806567 -0.972291
  H 3.828264 -2.639501 0.100006
 16
 31.881900
  C 1.513851 -0.241530 0.511237
  H 2.864386 0.259299 -1.464080
  H 1.034639 -0.413605 -0.458785
  H 1.332890 -1.110349 1.158658
  H 1.044565 0.635211 0.975868
  Pt 3.574885 -0.041990 0.377231
  N 3.504172 1.850101 1.243402
  N 3.837928 -1.887307 -0.576156
  Cl 2.555504 0.509484 -2.835001
  Cl 6.076764 0.073968 0.631268
  H 4.326451 1.898896 1.848263
  H 3.597152 2.537317 0.494390
  H 2.642443 2.015768 1.769202
  H 3.149822 -2.054618 -1.312080
  H 4.780481 -1.813762 -0.973042
  H 3.820994 -2.643277 0.107896
 16
 31.489947
  C 1.511536 -0.249806 0.516080
  H 2.902703 0.276912 -1.462772
  H 1.039909 -0.414742 -0.458999
  H 1.325958 -1.120889 1.159509
  H 1.041485 0.626256 0.980746
  Pt 3.572507 -0.043795 0.377371
  N 3.501228 1.850248 1.239417
  N 3.832521 -1.891953 -0.570735
  Cl 2.562496 0.533149 -2.828148
  Cl 6.077244 0.082308 0.607993
  H 4.324571 1.903083 1.843131
  H 3.591429 2.535446 0.488138
  H 2.641712 2.015307 1.764783
  H 3.142999 -2.059405 -1.304589
  H 4.773298 -1.821088 -0.968492
  H 3.815262 -2.646640 0.114996
 16
 31.151614
  C 1.509931 -0.257895 0.520414
  H 2.941715 0.293811 -1.460694
  H 1.044117 -0.415629 -0.458554
  H 1.320381 -1.130503 1.159573
  H 1.039688 0.618036 0.985677
  Pt 3.569985 -0.046048 0.377413
  N 3.498097 1.850285 1.235373
  N 3.827180 -1.896581 -0.565125
  Cl 2.569797 0.556056 -2.820973
  Cl 6.076162 0.090142 0.583733
  H 4.322226 1.907047 1.837803
  H 3.585657 2.533718 0.482081
  H 2.639441 2.014856 1.761346
  H 3.135695 -2.063713 -1.297301
  H 4.767381 -1.828689 -0.964358
  H 3.809348 -2.649804 0.122164
 16
 30.914898
  C 1.511094 -0.267059 0.524470
  H 2.986273 0.304897 -1.463681
  H 1.048841 -0.415503 -0.457721
  H 1.316661 -1.142188 1.158754
  H 1.043709 0.609018 0.992328
  Pt 3.565743 -0.047449 0.377718
  N 3.494080 1.850918 1.231659
  N 3.819457 -1.900687 -0.559575
  Cl 2.576348 0.579808 -2.813153
  Cl 6.074195 0.100983 0.561203
  H 4.319000 1.910921 1.832491
  H 3.579140 2.532695 0.476596
  H 2.636224 2.015376 1.758710
  H 3.126223 -2.067218 -1.290068
  H 4.759242 -1.836212 -0.960290
  H 3.800513 -2.652563 0.129272
 16
 30.631372
  C 1.502108 -0.267817 0.526592
  H 2.988567 0.336963 -1.451331
  H 1.047800 -0.417229 -0.458965
  H 1.310011 -1.142971 1.161278
  H 1.025526 0.604910 0.991228
  Pt 3.569707 -0.050568 0.377233
  N 3.495203 1.848916 1.227750
  N 3.823544 -1.905777 -0.555516
  Cl 2.583345 0.590510 -2.808962
  Cl 6.077464 0.098245 0.543084
  H 4.320309 1.911769 1.828068
  H 3.578474 2.529244 0.471139
  H 2.637286 2.013047 1.754647
  H 3.130029 -2.072886 -1.285633
  H 4.763414 -1.842884 -0.956257
  H 3.803849 -2.656558 0.134622
 16
 30.396494
  C 1.502161 -0.267966 0.529193
  H 3.009676 0.366494 -1.445127
  H 1.051849 -0.420536 -0.457658
  H 1.312157 -1.142261 1.165387
  H 1.019887 0.603575 0.990289
  Pt 3.568025 -0.053785 0.377220
  N 3.491119 1.846872 1.225095
  N 3.822219 -1.910574 -0.552237
  Cl 2.588863 0.597592 -2.805361
  Cl 6.076267 0.097062 0.524122
  H 4.316354 1.912581 1.824889
  H 3.572559 2.526752 0.467981
  H 2.633602 2.009568 1.752152
  H 3.127344 -2.077371 -1.281270
  H 4.761575 -1.849348 -0.954352
  H 3.802883 -2.660671 0.138898
 16
 30.367351
  C 1.502175 -0.270016 0.528593
  H 3.010392 0.369089 -1.444020
  H 1.052033 -0.422191 -0.458180
  H 1.312123 -1.145201 1.164054
  H 1.019423 0.601242 0.990445
  Pt 3.567848 -0.053455 0.377324
  N 3.491596 1.847645 1.224447
  N 3.821211 -1.910623 -0.551172
  Cl 2.589923 0.600487 -2.804405
  Cl 6.076497 0.097223 0.522299
  H 4.317292 1.913470 1.824507
  H 3.573106 2.527068 0.467200
  H 2.634274 2.010769 1.751333
  H 3.126633 -2.076989 -1.280050
  H 4.761019 -1.850200 -0.953206
  H 3.801000 -2.660376 0.140046
 16
 30.333681
  C 1.502290 -0.272420 0.527969
  H 3.011330 0.372321 -1.442585
  H 1.052266 -0.424099 -0.458837
  H 1.312211 -1.148511 1.162439
  H 1.019084 0.598320 0.990664
  Pt 3.567698 -0.053097 0.377462
  N 3.492181 1.848521 1.223692
  N 3.820090 -1.910730 -0.549886
  Cl 2.591258 0.604094 -2.803166
  Cl 6.076787 0.097464 0.520059
  H 4.318018 1.914465 1.823767
  H 3.573783 2.527530 0.466152
  H 2.634942 2.012172 1.750478
  H 3.125632 -2.076631 -1.278858
  H 4.760158 -1.851286 -0.951681
  H 3.798819 -2.660194 0.141540
 16
 30.291701
  C 1.502488 -0.275390 0.527264
  H 3.012583 0.376568 -1.440644
  H 1.052554 -0.426400 -0.459665
  H 1.312386 -1.152511 1.160407
  H 1.018803 0.594584 0.990993
  Pt 3.567524 -0.052712 0.377616
  N 3.492869 1.849568 1.222702
  N 3.818730 -1.910956 -0.548255
  Cl 2.593002 0.608827 -2.801507
  Cl 6.077100 0.097828 0.517119
  H 4.318726 1.915676 1.822689
  H 3.574584 2.528095 0.464739
  H 2.635682 2.013883 1.749391
  H 3.124377 -2.076282 -1.277455
  H 4.759053 -1.852765 -0.949672
  H 3.796086 -2.660101 0.143485
 16
 30.233766
  C 1.502804 -0.279426 0.526386
  H 3.014447 0.382784 -1.437722
  H 1.052950 -0.429413 -0.460754
  H 1.312637 -1.157914 1.157647
  H 1.018531 0.589434 0.991565
  Pt 3.567271 -0.052301 0.377770
  N 3.493693 1.850927 1.221204
  N 3.816909 -1.911446 -0.545968
  Cl 2.595551 0.615732 -2.799049
  Cl 6.077408 0.098447 0.512797
  H 4.319573 1.917321 1.821096
  H 3.575556 2.528769 0.462637
  H 2.636572 2.016160 1.747737
  H 3.122749 -2.075972 -1.275562
  H 4.757620 -1.855037 -0.946778
  H 3.792273 -2.660118 0.146205
 16
 30.122796
  C 1.503495 -0.286993 0.524953
  H 3.018447 0.395742 -1.431363
  H 1.053723 -0.434695 -0.462636
  H 1.313064 -1.168104 1.152557
  H 1.018228 0.579736 0.993054
  Pt 3.566749 -0.051869 0.377867
  N 3.494930 1.853267 1.217927
  N 3.813587 -1.912901 -0.541514
  Cl 2.600902 0.630090 -2.793815
  Cl 6.077659 0.099993 0.503690
  H 4.320789 1.920379 1.817671
  H 3.577054 2.529750 0.458138
  H 2.637897 2.020257 1.744102
  H 3.120061 -2.075822 -1.271998
  H 4.755123 -1.860064 -0.940886
  H 3.784817 -2.660615 0.151516
 16
 30.029369
  C 1.503994 -0.292523 0.524355
  H 3.022409 0.407487 -1.425056
  H 1.054211 -0.437881 -0.463561
  H 1.313024 -1.175554 1.149075
  H 1.018242 0.572606 0.994886
  Pt 3.566312 -0.052206 0.377568
  N 3.495271 1.854610 1.214648
  N 3.811421 -1.914936 -0.537951
  Cl 2.606010 0.643090 -2.788796
  Cl 6.077322 0.101857 0.495072
  H 4.321082 1.922609 1.814402
  H 3.577554 2.529906 0.453865
  H 2.638222 2.022918 1.740461
  H 3.118622 -2.076529 -1.269629
  H 4.753896 -1.865090 -0.935757
  H 3.778894 -2.661815 0.155779
 16
 29.948590
  C 1.504290 -0.296872 0.524227
  H 3.026280 0.418098 -1.418920
  H 1.054372 -0.439939 -0.464136
  H 1.312619 -1.181485 1.146640
  H 1.018347 0.567068 0.996881
  Pt 3.565926 -0.052905 0.377055
  N 3.495195 1.855348 1.211527
  N 3.809908 -1.917104 -0.535081
  Cl 2.610928 0.654921 -2.783978
  Cl 6.076798 0.103830 0.486831
  H 4.320735 1.924229 1.811194
  H 3.577607 2.529783 0.449755
  H 2.638205 2.024635 1.736934
  H 3.118400 -2.077359 -1.267604
  H 4.752963 -1.869855 -0.931089
  H 3.773867 -2.663377 0.159243
