 16
 150.714951
  C -1.338967 -1.027151 0.118160
  H 3.137447 0.799445 1.027832
  H -1.583589 -1.102994 -0.937840
  H -1.015548 -1.900884 0.661075
  H -1.667686 -0.169524 0.683482
  Pt 4.028920 0.220428 -0.087446
  N 4.753916 2.200063 -0.191095
  N 3.395318 -1.780477 -0.096215
  Cl 3.014565 0.907947 2.328613
  Cl 5.266742 -0.367628 -2.240238
  H 4.872913 2.341611 -1.196281
  H 4.085273 2.890997 0.136066
  H 5.656915 2.266197 0.264927
  H 3.176953 -2.086410 0.854545
  H 2.522231 -1.806996 -0.622416
  H 4.136873 -2.334129 -0.517604
 16
 145.652813
  C -1.354908 -1.033222 0.116244
  H 3.134701 0.806779 1.030623
  H -1.596648 -1.107566 -0.942413
  H -1.029242 -1.905805 0.658869
  H -1.681806 -0.176815 0.684839
  Pt 4.035013 0.225061 -0.090859
  N 4.760831 2.193880 -0.198812
  N 3.399154 -1.773636 -0.097060
  Cl 3.010676 0.911397 2.365082
  Cl 5.267207 -0.349611 -2.240874
  H 4.882252 2.330149 -1.203711
  H 4.101990 2.873579 0.133733
  H 5.657998 2.265071 0.254934
  H 3.186497 -2.078176 0.859543
  H 2.532751 -1.800531 -0.624561
  H 4.135809 -2.330058 -0.520013
 16
 140.962607
  C -1.372463 -1.035119 0.115837
  H 3.130091 0.808570 1.036164
  H -1.603463 -1.104260 -0.940367
  H -1.043955 -1.909499 0.659486
  H -1.693045 -0.178569 0.685739
  Pt 4.043057 0.229072 -0.096162
  N 4.767778 2.183876 -0.209098
  N 3.403115 -1.772286 -0.097375
  Cl 3.002066 0.916158 2.402834
  Cl 5.277839 -0.334662 -2.243186
  H 4.887798 2.300740 -1.205237
  H 4.093176 2.877614 0.133586
  H 5.667713 2.272206 0.244147
  H 3.193723 -2.072297 0.846394
  H 2.543709 -1.798980 -0.627048
  H 4.145138 -2.332067 -0.520150
 16
 136.247374
  C -1.377355 -1.045093 0.112928
  H 3.122779 0.820108 1.045184
  H -1.594954 -1.108713 -0.944525
  H -1.042904 -1.918566 0.654580
  H -1.693531 -0.184620 0.684083
  Pt 4.047290 0.230906 -0.102423
  N 4.773332 2.179744 -0.211342
  N 3.395712 -1.768926 -0.098261
  Cl 2.992683 0.922952 2.449942
  Cl 5.281861 -0.323925 -2.253409
  H 4.887941 2.289724 -1.234905
  H 4.105455 2.869751 0.135394
  H 5.690353 2.281509 0.245059
  H 3.188391 -2.077607 0.855985
  H 2.532596 -1.792457 -0.625318
  H 4.132628 -2.324290 -0.527406
 16
 132.741874
  C -1.399089 -1.044944 0.115521
  H 3.127435 0.817367 1.054250
  H -1.608751 -1.103946 -0.953707
  H -1.064044 -1.915439 0.651752
  H -1.703680 -0.177651 0.684989
  Pt 4.063965 0.219997 -0.104229
  N 4.771654 2.187268 -0.215608
  N 3.406560 -1.773425 -0.102401
  Cl 3.001050 0.928095 2.498125
  Cl 5.288981 -0.338287 -2.256423
  H 4.889414 2.294196 -1.233214
  H 4.104861 2.870244 0.125689
  H 5.672087 2.299503 0.235190
  H 3.198754 -2.078508 0.850106
  H 2.548004 -1.802386 -0.632255
  H 4.145075 -2.331586 -0.532222
 16
 133.636681
  C -1.383141 -1.055662 0.108536
  H 3.108718 0.808232 1.061680
  H -1.595107 -1.106201 -0.953612
  H -1.033212 -1.924160 0.647094
  H -1.689477 -0.201344 0.674374
  Pt 4.055366 0.220993 -0.100395
  N 4.762366 2.188159 -0.204359
  N 3.406202 -1.766040 -0.118615
  Cl 3.047655 0.981511 2.485095
  Cl 5.201452 -0.419238 -2.262654
  H 4.925002 2.350376 -1.212815
  H 4.096822 2.873234 0.144315
  H 5.643112 2.282837 0.299455
  H 3.200760 -2.078629 0.832414
  H 2.545473 -1.797472 -0.649169
  H 4.150285 -2.306098 -0.565779
 16
 131.766972
  C -1.381001 -1.059083 0.106112
  H 3.102460 0.809634 1.062674
  H -1.591027 -1.109352 -0.954496
  H -1.028951 -1.929095 0.644534
  H -1.690017 -0.196526 0.676660
  Pt 4.056551 0.220661 -0.104004
  N 4.765709 2.187777 -0.210548
  N 3.404540 -1.765603 -0.117965
  Cl 3.043082 0.983285 2.507374
  Cl 5.201193 -0.413769 -2.262910
  H 4.927158 2.347290 -1.210209
  H 4.098747 2.875120 0.139870
  H 5.647827 2.280601 0.293607
  H 3.201637 -2.077867 0.831916
  H 2.538894 -1.796811 -0.652213
  H 4.145475 -2.305765 -0.564837
 16
 129.579862
  C -1.377583 -1.062392 0.105756
  H 3.092028 0.812950 1.067445
  H -1.585482 -1.111272 -0.956120
  H -1.023093 -1.932009 0.641919
  H -1.684405 -0.203279 0.674348
  Pt 4.056986 0.222109 -0.108382
  N 4.771058 2.187501 -0.216588
  N 3.397598 -1.763708 -0.118219
  Cl 3.033970 0.986925 2.544915
  Cl 5.199992 -0.403075 -2.264335
  H 4.933799 2.347088 -1.221399
  H 4.106849 2.873035 0.134608
  H 5.652580 2.275338 0.287435
  H 3.195855 -2.076829 0.832669
  H 2.534640 -1.794213 -0.651759
  H 4.137485 -2.307672 -0.566728
 16
 129.246526
  C -1.388672 -1.059955 0.109314
  H 3.081744 0.811912 1.062179
  H -1.598568 -1.111452 -0.951618
  H -1.030887 -1.927212 0.646107
  H -1.692522 -0.199744 0.676199
  Pt 4.046840 0.218160 -0.120728
  N 4.787023 2.191780 -0.226370
  N 3.408870 -1.768585 -0.106661
  Cl 3.025011 0.996241 2.547743
  Cl 5.179888 -0.409749 -2.276914
  H 4.953868 2.350492 -1.229110
  H 4.123901 2.880018 0.124617
  H 5.667922 2.277335 0.282435
  H 3.187387 -2.085038 0.858654
  H 2.543018 -1.803858 -0.649279
  H 4.147454 -2.309850 -0.561003
 16
 127.793440
  C -1.385697 -1.062159 0.110096
  H 3.075225 0.816929 1.062802
  H -1.593919 -1.114612 -0.951534
  H -1.025956 -1.928671 0.647374
  H -1.689071 -0.200702 0.676119
  Pt 4.047284 0.220200 -0.124639
  N 4.788513 2.188691 -0.230640
  N 3.403097 -1.768148 -0.106107
  Cl 3.016555 1.006156 2.572265
  Cl 5.183215 -0.406433 -2.274580
  H 4.957016 2.348062 -1.233890
  H 4.127642 2.875345 0.125035
  H 5.666415 2.269708 0.280432
  H 3.188802 -2.081050 0.843466
  H 2.543224 -1.802671 -0.648552
  H 4.139931 -2.310149 -0.562084
 16
 127.222855
  C -1.382772 -1.063575 0.108840
  H 3.072785 0.817648 1.063882
  H -1.589425 -1.115727 -0.952156
  H -1.021665 -1.930916 0.645828
  H -1.687246 -0.197319 0.677266
  Pt 4.048546 0.220832 -0.125706
  N 4.788414 2.187170 -0.234138
  N 3.400455 -1.767285 -0.105500
  Cl 3.014627 1.006715 2.583449
  Cl 5.185543 -0.402922 -2.276438
  H 4.956382 2.344891 -1.232082
  H 4.126036 2.875036 0.122587
  H 5.667167 2.266705 0.277463
  H 3.188817 -2.079389 0.842244
  H 2.539208 -1.801684 -0.649565
  H 4.135405 -2.309684 -0.560408
 16
 126.588090
  C -1.378934 -1.064902 0.108067
  H 3.069208 0.818645 1.066191
  H -1.583733 -1.116249 -0.953146
  H -1.016281 -1.932578 0.643873
  H -1.682830 -0.197372 0.676808
  Pt 4.049642 0.222087 -0.126699
  N 4.788462 2.185543 -0.237652
  N 3.395809 -1.765526 -0.104926
  Cl 3.011634 1.007140 2.599700
  Cl 5.187962 -0.397337 -2.279196
  H 4.956872 2.342636 -1.235222
  H 4.126197 2.872922 0.119795
  H 5.667287 2.262460 0.274240
  H 3.186736 -2.077654 0.843255
  H 2.534581 -1.799604 -0.649950
  H 4.129663 -2.309713 -0.559572
 16
 125.929951
  C -1.374226 -1.066530 0.107398
  H 3.064859 0.819321 1.068857
  H -1.576752 -1.116840 -0.954377
  H -1.009766 -1.934371 0.641607
  H -1.676730 -0.198502 0.675769
  Pt 4.050366 0.223374 -0.127850
  N 4.788864 2.183838 -0.241783
  N 3.389812 -1.763082 -0.104064
  Cl 3.007741 1.007142 2.618716
  Cl 5.190382 -0.391011 -2.283130
  H 4.957993 2.340384 -1.239232
  H 4.126722 2.870883 0.116687
  H 5.667830 2.257465 0.270551
  H 3.183866 -2.075103 0.844670
  H 2.529052 -1.796970 -0.649876
  H 4.122262 -2.309503 -0.558377
 16
 125.213385
  C -1.367759 -1.068963 0.106474
  H 3.059027 0.819284 1.071879
  H -1.567040 -1.117799 -0.955964
  H -1.000811 -1.937072 0.638584
  H -1.668151 -0.199735 0.674559
  Pt 4.050305 0.224804 -0.129348
  N 4.789785 2.181996 -0.247046
  N 3.381633 -1.759435 -0.102583
  Cl 3.001922 1.006231 2.642484
  Cl 5.192823 -0.383061 -2.289152
  H 4.960081 2.338061 -1.244257
  H 4.128227 2.868480 0.112712
  H 5.668714 2.251199 0.265906
  H 3.179849 -2.071136 0.847159
  H 2.521347 -1.793433 -0.649389
  H 4.112322 -2.308926 -0.556454
 16
 124.343103
  C -1.356345 -1.073177 0.105215
  H 3.049781 0.817488 1.075320
  H -1.550067 -1.119493 -0.958508
  H -0.985357 -1.941479 0.633955
  H -1.652176 -0.202225 0.672388
  Pt 4.048079 0.226761 -0.131814
  N 4.792005 2.179427 -0.255180
  N 3.367719 -1.752963 -0.099534
  Cl 2.991135 1.003267 2.677696
  Cl 5.194766 -0.370961 -2.300204
  H 4.964479 2.335048 -1.251670
  H 4.131086 2.866052 0.107075
  H 5.671113 2.241351 0.259166
  H 3.172576 -2.063361 0.851482
  H 2.508216 -1.787833 -0.647407
  H 4.095267 -2.307406 -0.552415
