 16
 70.709430
  C 0.678057 -0.520507 0.028536
  H 1.963000 -0.224830 0.177136
  H 0.452477 -0.415605 -1.034386
  H 0.482372 -1.539736 0.359487
  H 0.184981 0.229799 0.642932
  Pt 3.509597 -0.793956 0.057274
  N 2.431506 2.633882 -0.061996
  N 5.447897 -1.276159 -0.059814
  Cl 3.601873 -0.519617 -2.354007
  Cl 3.568059 -1.132617 2.456557
  H 2.262817 2.756553 0.919419
  H 2.811803 3.390750 -0.604491
  H 2.004926 1.748695 -0.599650
  H 5.652323 -1.311616 -1.062701
  H 6.054246 -0.609911 0.422933
  H 5.494308 -2.210581 0.353451
 16
 67.579893
  C 0.671707 -0.514751 0.031204
  H 1.949682 -0.220462 0.180963
  H 0.444168 -0.403047 -1.029049
  H 0.470143 -1.534955 0.355789
  H 0.181414 0.232367 0.650023
  Pt 3.514234 -0.811679 0.054050
  N 2.429946 2.632607 -0.070315
  N 5.455405 -1.274672 -0.055938
  Cl 3.606744 -0.530132 -2.358185
  Cl 3.573210 -1.158102 2.450180
  H 2.264828 2.755033 0.912185
  H 2.805331 3.385002 -0.612437
  H 2.004806 1.765532 -0.592374
  H 5.661785 -1.306035 -1.059701
  H 6.052573 -0.603659 0.428850
  H 5.514265 -2.208501 0.355436
 16
 63.767744
  C 0.714431 -0.520127 0.036290
  H 1.957530 -0.273127 0.239148
  H 0.465361 -0.424145 -1.018705
  H 0.544468 -1.546303 0.357738
  H 0.216826 0.221343 0.651291
  Pt 3.552112 -0.734386 -0.001737
  N 2.386703 2.642053 -0.091321
  N 5.417985 -1.323660 -0.035348
  Cl 3.627313 -0.391842 -2.409575
  Cl 3.635486 -1.141546 2.383585
  H 2.229828 2.769240 0.889572
  H 2.746363 3.399543 -0.639333
  H 2.008939 1.828367 -0.549397
  H 5.654276 -1.423873 -1.026939
  H 6.016229 -0.640140 0.432702
  H 5.426393 -2.236854 0.422710
 16
 60.261187
  C 0.696329 -0.512417 0.038528
  H 1.916827 -0.271945 0.239837
  H 0.450840 -0.412833 -1.015572
  H 0.515435 -1.534389 0.363947
  H 0.200833 0.233743 0.649805
  Pt 3.541847 -0.767105 -0.004480
  N 2.393182 2.641838 -0.084621
  N 5.449843 -1.316590 -0.042729
  Cl 3.628438 -0.436828 -2.406137
  Cl 3.605626 -1.160755 2.387907
  H 2.234448 2.768537 0.891381
  H 2.760365 3.404792 -0.633488
  H 2.007823 1.825286 -0.552116
  H 5.684380 -1.411472 -1.031645
  H 6.036526 -0.618335 0.426975
  H 5.477500 -2.226984 0.413088
 16
 57.286229
  C 0.704579 -0.507707 0.039767
  H 1.885625 -0.271640 0.237279
  H 0.467815 -0.406259 -1.014607
  H 0.515978 -1.528483 0.367162
  H 0.207981 0.238056 0.644788
  Pt 3.532395 -0.795243 -0.003877
  N 2.389176 2.654193 -0.085276
  N 5.454908 -1.314134 -0.044024
  Cl 3.624433 -0.475072 -2.409488
  Cl 3.600929 -1.182962 2.388168
  H 2.232184 2.778090 0.893757
  H 2.756523 3.414653 -0.628725
  H 2.009377 1.836925 -0.548184
  H 5.689993 -1.401349 -1.033245
  H 6.029878 -0.610330 0.422991
  H 5.498467 -2.224193 0.414195
 16
 55.037237
  C 0.724871 -0.512601 0.041481
  H 1.849911 -0.277340 0.238696
  H 0.499283 -0.408241 -1.018346
  H 0.532622 -1.534377 0.366296
  H 0.211823 0.230897 0.644833
  Pt 3.521836 -0.812930 -0.000206
  N 2.386607 2.683496 -0.089246
  N 5.453493 -1.318600 -0.044638
  Cl 3.613473 -0.494897 -2.405937
  Cl 3.596622 -1.201774 2.391298
  H 2.230342 2.815697 0.896548
  H 2.750284 3.430042 -0.628972
  H 2.009287 1.849592 -0.547391
  H 5.689413 -1.397406 -1.039374
  H 6.018277 -0.615391 0.421777
  H 5.512098 -2.231623 0.413863
 16
 54.167455
  C 0.720511 -0.511612 0.043452
  H 1.834100 -0.276265 0.240904
  H 0.497589 -0.403456 -1.016542
  H 0.522582 -1.531454 0.364000
  H 0.200180 0.229834 0.649375
  Pt 3.523226 -0.822976 0.001053
  N 2.384780 2.684429 -0.091530
  N 5.460336 -1.320095 -0.046684
  Cl 3.615822 -0.501781 -2.402064
  Cl 3.594674 -1.215031 2.391980
  H 2.231846 2.818719 0.892489
  H 2.752935 3.431847 -0.638544
  H 2.009281 1.860524 -0.541118
  H 5.698791 -1.391512 -1.041877
  H 6.023387 -0.613591 0.424724
  H 5.530201 -2.233035 0.411062
 16
 53.643607
  C 0.683466 -0.487086 0.021662
  H 1.783647 -0.284315 0.258337
  H 0.496668 -0.375025 -1.045774
  H 0.443352 -1.498883 0.332004
  H 0.156987 0.272622 0.608138
  Pt 3.501697 -0.913045 0.069302
  N 2.401175 2.667698 -0.079292
  N 5.506576 -1.280694 -0.070813
  Cl 3.578858 -0.601851 -2.332323
  Cl 3.584709 -1.295477 2.461641
  H 2.258326 2.830002 0.899461
  H 2.783616 3.400243 -0.654942
  H 2.016260 1.846372 -0.516123
  H 5.714432 -1.340994 -1.074811
  H 6.058794 -0.543651 0.379919
  H 5.631676 -2.191372 0.384295
 16
 53.799081
  C 0.720155 -0.526126 0.048474
  H 1.820980 -0.267432 0.248977
  H 0.509194 -0.412827 -1.013373
  H 0.518611 -1.545008 0.367261
  H 0.178311 0.201357 0.656518
  Pt 3.529711 -0.808613 -0.010113
  N 2.379086 2.703994 -0.096407
  N 5.460409 -1.341482 -0.042109
  Cl 3.610795 -0.481174 -2.413144
  Cl 3.603014 -1.202236 2.376970
  H 2.226574 2.835222 0.884516
  H 2.753648 3.454136 -0.645146
  H 2.014666 1.886833 -0.536648
  H 5.701175 -1.400000 -1.038186
  H 6.027476 -0.638334 0.439182
  H 5.546436 -2.253767 0.413908
 16
 53.512535
  C 0.718902 -0.524382 0.048639
  H 1.812965 -0.267049 0.248600
  H 0.509148 -0.410619 -1.013834
  H 0.517411 -1.544165 0.368668
  H 0.178505 0.203341 0.656348
  Pt 3.524980 -0.810353 -0.010182
  N 2.379116 2.703956 -0.096131
  N 5.466377 -1.341819 -0.042943
  Cl 3.606616 -0.483834 -2.412262
  Cl 3.597400 -1.203303 2.378084
  H 2.226669 2.835325 0.885398
  H 2.754326 3.452732 -0.644452
  H 2.013724 1.886256 -0.537695
  H 5.709334 -1.399815 -1.037916
  H 6.031009 -0.639699 0.437853
  H 5.553761 -2.252027 0.412506
 16
 53.340936
  C 0.717943 -0.523069 0.048750
  H 1.806392 -0.266532 0.248529
  H 0.509611 -0.408684 -1.013961
  H 0.516841 -1.542818 0.369556
  H 0.178432 0.205145 0.656561
  Pt 3.521130 -0.812540 -0.010427
  N 2.378885 2.703442 -0.095681
  N 5.470749 -1.341779 -0.044078
  Cl 3.602961 -0.486662 -2.411593
  Cl 3.592814 -1.204979 2.378853
  H 2.226703 2.834714 0.885659
  H 2.755324 3.451880 -0.644368
  H 2.013189 1.886159 -0.538245
  H 5.715966 -1.399094 -1.038228
  H 6.033932 -0.638867 0.437563
  H 5.559371 -2.251771 0.411790
 16
 53.216636
  C 0.717048 -0.522064 0.048774
  H 1.800602 -0.265709 0.248713
  H 0.510413 -0.407026 -1.014219
  H 0.516468 -1.541762 0.370568
  H 0.178250 0.206619 0.656587
  Pt 3.517704 -0.815175 -0.010710
  N 2.379026 2.703104 -0.095253
  N 5.474294 -1.341278 -0.045267
  Cl 3.599492 -0.490180 -2.411017
  Cl 3.588639 -1.206755 2.379562
  H 2.227169 2.834363 0.886327
  H 2.756683 3.450397 -0.643957
  H 2.013086 1.886131 -0.539070
  H 5.722162 -1.397807 -1.038512
  H 6.035232 -0.637834 0.437162
  H 5.563974 -2.250481 0.410994
 16
 53.110675
  C 0.715927 -0.521371 0.048747
  H 1.795050 -0.264356 0.249380
  H 0.511539 -0.405461 -1.014604
  H 0.516099 -1.540979 0.371812
  H 0.177674 0.207717 0.656481
  Pt 3.514197 -0.818814 -0.011102
  N 2.379476 2.702755 -0.094523
  N 5.477337 -1.340188 -0.046807
  Cl 3.595498 -0.494900 -2.410548
  Cl 3.584405 -1.209187 2.380168
  H 2.228243 2.833861 0.887003
  H 2.759115 3.449043 -0.643651
  H 2.013468 1.886312 -0.540008
  H 5.728712 -1.395553 -1.038956
  H 6.035289 -0.635654 0.437080
  H 5.568212 -2.248680 0.410210
 16
 52.969482
  C 0.714071 -0.521176 0.048457
  H 1.788755 -0.261026 0.251361
  H 0.513873 -0.403848 -1.015488
  H 0.515794 -1.540330 0.373920
  H 0.175859 0.208377 0.655776
  Pt 3.509491 -0.825812 -0.011888
  N 2.381055 2.702474 -0.093369
  N 5.480023 -1.337350 -0.049494
  Cl 3.588970 -0.504107 -2.410413
  Cl 3.578959 -1.213438 2.380634
  H 2.231181 2.833362 0.888818
  H 2.764161 3.445682 -0.642600
  H 2.015402 1.887178 -0.541907
  H 5.737949 -1.390393 -1.039711
  H 6.031822 -0.630600 0.437459
  H 5.572877 -2.244449 0.409125
 16
 52.849129
  C 0.712703 -0.523048 0.046851
  H 1.787651 -0.257626 0.254523
  H 0.517047 -0.405303 -1.017810
  H 0.515815 -1.542101 0.373843
  H 0.172221 0.206310 0.652409
  Pt 3.507005 -0.831330 -0.009286
  N 2.383094 2.703366 -0.090912
  N 5.478989 -1.334438 -0.052236
  Cl 3.582952 -0.511614 -2.407983
  Cl 3.577899 -1.216275 2.383520
  H 2.235260 2.834664 0.889597
  H 2.770691 3.446435 -0.642927
  H 2.017934 1.887450 -0.541824
  H 5.740162 -1.385817 -1.041626
  H 6.026670 -0.625139 0.436680
  H 5.574148 -2.240990 0.407862
