 16
 223.139463
  C -0.356375 -0.016744 0.759337
  H 1.686021 -0.052779 0.856795
  H 0.385719 -0.258465 -0.124292
  H -0.890385 -0.978668 0.803837
  H -1.029940 0.770269 0.410444
  Pt 6.013283 -0.188289 0.002723
  N -0.494488 0.269128 2.188815
  N 6.946984 -0.218093 -1.786683
  Cl 2.960314 -0.096775 0.411231
  Cl 8.043017 0.018436 1.441321
  H 0.344494 0.159811 2.785327
  H -0.785227 1.200158 2.230725
  H -1.274892 -0.312421 2.558525
  H 6.405446 -0.296694 -2.641820
  H 7.469614 0.655082 -1.731843
  H 7.584889 -1.000230 -1.642942
 16
 215.447834
  C -0.363332 -0.023596 0.742152
  H 1.677392 -0.055713 0.858262
  H 0.377526 -0.254831 -0.111642
  H -0.896542 -0.985588 0.772432
  H -1.030989 0.755220 0.383169
  Pt 6.012506 -0.186962 0.010589
  N -0.490752 0.269528 2.205405
  N 6.952051 -0.215652 -1.791005
  Cl 2.964658 -0.098200 0.410960
  Cl 8.030958 0.018072 1.447976
  H 0.349786 0.158532 2.795195
  H -0.786516 1.225129 2.254254
  H -1.266045 -0.308421 2.577185
  H 6.412383 -0.293154 -2.640767
  H 7.471776 0.651187 -1.740544
  H 7.593615 -1.001826 -1.652121
 16
 209.828653
  C -0.372413 -0.026967 0.728346
  H 1.680044 -0.059593 0.872911
  H 0.367922 -0.253856 -0.084855
  H -0.899459 -0.992618 0.748712
  H -1.042207 0.754548 0.362828
  Pt 6.007772 -0.190001 0.025320
  N -0.491651 0.271663 2.212443
  N 6.959174 -0.219733 -1.801457
  Cl 2.980509 -0.102994 0.414050
  Cl 8.026887 0.017673 1.478577
  H 0.359583 0.162064 2.801426
  H -0.789970 1.234848 2.262668
  H -1.272361 -0.306910 2.587658
  H 6.411160 -0.299440 -2.662034
  H 7.490063 0.661833 -1.756207
  H 7.593422 -0.996790 -1.668887
 16
 205.195207
  C -0.380660 -0.030640 0.711713
  H 1.684420 -0.056501 0.884941
  H 0.365340 -0.253055 -0.067507
  H -0.905778 -1.003794 0.720776
  H -1.055491 0.761205 0.345140
  Pt 6.000066 -0.188256 0.040135
  N -0.482885 0.273008 2.222187
  N 6.954676 -0.217986 -1.816078
  Cl 2.996687 -0.102487 0.414139
  Cl 8.028128 0.024193 1.517382
  H 0.367427 0.164518 2.801283
  H -0.782856 1.245059 2.271751
  H -1.269572 -0.315414 2.599054
  H 6.410148 -0.293236 -2.667211
  H 7.477881 0.652761 -1.772957
  H 7.600943 -1.005649 -1.683248
 16
 201.174326
  C -0.391553 -0.036725 0.681771
  H 1.687073 -0.062568 0.894851
  H 0.365664 -0.256610 -0.070577
  H -0.913345 -1.008901 0.683465
  H -1.051328 0.741261 0.316660
  Pt 5.982984 -0.189434 0.061649
  N -0.468988 0.276733 2.236334
  N 6.941441 -0.218658 -1.822861
  Cl 3.009915 -0.107397 0.413918
  Cl 8.021094 0.025265 1.561033
  H 0.392054 0.165922 2.814046
  H -0.764368 1.266123 2.287162
  H -1.239228 -0.306451 2.609841
  H 6.395393 -0.294530 -2.673383
  H 7.464949 0.651437 -1.778247
  H 7.576716 -0.991740 -1.694162
 16
 198.267666
  C -0.398408 -0.045759 0.654903
  H 1.699414 -0.063836 0.915913
  H 0.384851 -0.264483 -0.076032
  H -0.922396 -1.008539 0.639388
  H -1.060651 0.741933 0.276655
  Pt 5.976092 -0.187218 0.080765
  N -0.459512 0.278680 2.254283
  N 6.924048 -0.217208 -1.824930
  Cl 3.031009 -0.110632 0.415372
  Cl 8.021201 0.031209 1.586532
  H 0.405624 0.170624 2.823571
  H -0.746079 1.272711 2.304397
  H -1.235859 -0.305961 2.634413
  H 6.364352 -0.294598 -2.679274
  H 7.451088 0.669006 -1.784942
  H 7.573699 -1.012201 -1.699512
 16
 195.612297
  C -0.405445 -0.054193 0.624807
  H 1.719851 -0.067005 0.929035
  H 0.402783 -0.267100 -0.071782
  H -0.934305 -1.022550 0.603717
  H -1.068088 0.747708 0.248687
  Pt 5.975557 -0.187494 0.095799
  N -0.442626 0.285200 2.264867
  N 6.904106 -0.218697 -1.821838
  Cl 3.063460 -0.114806 0.411174
  Cl 8.019186 0.034674 1.610315
  H 0.421743 0.175937 2.812687
  H -0.719820 1.279663 2.315042
  H -1.224001 -0.307423 2.651823
  H 6.341595 -0.294598 -2.659788
  H 7.418633 0.654529 -1.787059
  H 7.535845 -0.990119 -1.705986
 16
 192.696939
  C -0.414620 -0.060369 0.601105
  H 1.737866 -0.065407 0.939344
  H 0.409790 -0.266134 -0.053955
  H -0.954284 -1.023021 0.580920
  H -1.051085 0.734055 0.237283
  Pt 5.977105 -0.186181 0.116020
  N -0.431857 0.285181 2.264671
  N 6.873540 -0.216409 -1.817816
  Cl 3.095795 -0.118396 0.401162
  Cl 8.009985 0.036232 1.635402
  H 0.455951 0.171920 2.802570
  H -0.710263 1.284128 2.313281
  H -1.193538 -0.296298 2.641497
  H 6.299355 -0.287521 -2.648770
  H 7.386076 0.659377 -1.785616
  H 7.518656 -0.997430 -1.705595
 16
 189.849197
  C -0.419973 -0.064275 0.599729
  H 1.752402 -0.073708 0.940564
  H 0.438567 -0.261468 -0.028494
  H -0.957329 -1.009929 0.581052
  H -1.050743 0.728808 0.215926
  Pt 5.992896 -0.189837 0.136116
  N -0.428071 0.285051 2.255519
  N 6.851781 -0.217442 -1.812048
  Cl 3.127217 -0.126643 0.391882
  Cl 8.006523 0.038397 1.657661
  H 0.466111 0.171782 2.772550
  H -0.701902 1.285350 2.318833
  H -1.189853 -0.297369 2.635298
  H 6.261816 -0.282282 -2.636393
  H 7.359310 0.667627 -1.794126
  H 7.499723 -1.000334 -1.712570
 16
 186.604776
  C -0.422887 -0.063913 0.599085
  H 1.775309 -0.074054 0.955213
  H 0.466585 -0.249462 0.004674
  H -0.970514 -1.015158 0.578876
  H -1.047648 0.742379 0.209222
  Pt 6.012568 -0.188919 0.157718
  N -0.424127 0.279535 2.240374
  N 6.827153 -0.218098 -1.808376
  Cl 3.166808 -0.129877 0.387839
  Cl 8.007073 0.043048 1.682440
  H 0.486378 0.175386 2.740881
  H -0.706606 1.280697 2.304334
  H -1.186913 -0.310018 2.619330
  H 6.219003 -0.281048 -2.623213
  H 7.333425 0.669460 -1.801802
  H 7.472866 -1.006235 -1.725095
 16
 182.801089
  C -0.424518 -0.061911 0.602466
  H 1.802922 -0.072477 0.969581
  H 0.483680 -0.245897 0.049901
  H -0.974681 -1.013744 0.583600
  H -1.040958 0.753668 0.199884
  Pt 6.034542 -0.188009 0.183165
  N -0.420008 0.276638 2.218014
  N 6.798015 -0.217536 -1.807003
  Cl 3.210093 -0.131794 0.382651
  Cl 8.009761 0.048932 1.713202
  H 0.501282 0.169834 2.698264
  H -0.706878 1.275436 2.288482
  H -1.183288 -0.319482 2.597531
  H 6.172690 -0.275592 -2.607345
  H 7.307192 0.667742 -1.808101
  H 7.438627 -1.012081 -1.742790
 16
 180.052681
  C -0.425371 -0.058808 0.607971
  H 1.821365 -0.072737 0.978200
  H 0.498256 -0.236949 0.081041
  H -0.977454 -1.009896 0.578709
  H -1.032476 0.762633 0.200026
  Pt 6.049745 -0.190650 0.203149
  N -0.416872 0.272117 2.201984
  N 6.776009 -0.217141 -1.806325
  Cl 3.240605 -0.139997 0.379090
  Cl 8.011945 0.057425 1.738586
  H 0.513203 0.169263 2.668455
  H -0.708784 1.269366 2.275112
  H -1.178084 -0.328197 2.581431
  H 6.137420 -0.277790 -2.595898
  H 7.282211 0.667487 -1.816491
  H 7.416755 -1.012399 -1.753539
 16
 176.259957
  C -0.426249 -0.058274 0.612916
  H 1.850686 -0.066203 0.988793
  H 0.520846 -0.226909 0.123535
  H -0.978592 -1.008022 0.566395
  H -1.021229 0.768389 0.194153
  Pt 6.069886 -0.192668 0.228965
  N -0.411252 0.266242 2.182579
  N 6.740239 -0.216918 -1.803088
  Cl 3.285956 -0.147611 0.373449
  Cl 8.015169 0.060951 1.774665
  H 0.532899 0.175378 2.627696
  H -0.712753 1.260373 2.255298
  H -1.164590 -0.338607 2.563821
  H 6.082891 -0.277281 -2.574580
  H 7.247381 0.669132 -1.824088
  H 7.377185 -1.014245 -1.769006
 16
 172.716753
  C -0.424857 -0.055006 0.610019
  H 1.881089 -0.056472 0.999975
  H 0.542397 -0.214320 0.154780
  H -0.976006 -1.005087 0.542468
  H -1.005977 0.771520 0.180618
  Pt 6.087228 -0.191440 0.254160
  N -0.404923 0.262115 2.168098
  N 6.703257 -0.217194 -1.795991
  Cl 3.334063 -0.150865 0.369948
  Cl 8.016292 0.071106 1.809678
  H 0.554044 0.172544 2.592447
  H -0.708065 1.248568 2.248549
  H -1.152953 -0.348263 2.551848
  H 6.020155 -0.280563 -2.556026
  H 7.205146 0.663631 -1.830703
  H 7.337583 -1.016547 -1.778368
 16
 169.232918
  C -0.424014 -0.056437 0.606004
  H 1.913593 -0.053038 1.011888
  H 0.564989 -0.206894 0.185608
  H -0.974027 -1.006634 0.524301
  H -0.993630 0.770267 0.160117
  Pt 6.100162 -0.184415 0.271204
  N -0.397500 0.260723 2.154424
  N 6.658517 -0.217720 -1.791062
  Cl 3.382227 -0.152843 0.367414
  Cl 8.015923 0.061657 1.845617
  H 0.576635 0.170664 2.555802
  H -0.702516 1.244299 2.239543
  H -1.133070 -0.349242 2.538715
  H 5.965568 -0.291071 -2.514936
  H 7.161115 0.677531 -1.847066
  H 7.294500 -1.013119 -1.786072
