11

 Pt -0.00001200 0.00002800 -0.00009700
 N 0.10894300 -2.07319800 0.00133400
 N -0.10899300 2.07322300 0.00024000
 Cl -2.42804000 -0.05845600 -0.00032200
 Cl 2.42811300 0.05830500 -0.00026800
 H 1.09933300 -2.31819800 0.07500900
 H -0.41954400 -2.43767900 0.79388700
 H -0.28717400 -2.42897700 -0.86876900
 H -1.09879100 2.31868100 -0.07940600
 H 0.28119100 2.42717000 0.87377100
 H 0.42499700 2.43921200 -0.78793300
