16

 C -1.07500079 -0.18955148 -0.06070570
 H 0.00000000 0.00000000 0.00000000
 H -1.37669277 -0.24437628 -1.11012769
 H -1.30675042 -1.13603660 0.43497383
 H -1.61661849 0.62219644 0.43220112
 Pt 3.92562722 0.38666961 0.05933242
 N 2.24940049 1.61157227 0.06342179
 N 5.60186277 -0.83816286 0.05347599
 Cl 2.55059951 -1.61157227 -0.06342179
 Cl 5.30052363 2.38508900 0.18248704
 H 2.58721635 2.57679629 0.04000433
 H 1.67756627 1.40259800 -0.75488166
 H 1.71109346 1.43801564 0.91234479
 H 5.26458830 -1.80339554 0.08288678
 H 6.13549065 -0.66841997 -0.79917110
 H 6.17808629 -0.62522613 0.86768380
