16

 C -0.44490722 -0.07748825 0.30799926
 H 0.44490722 0.07748825 -0.30799926
 H -1.31297144 -0.23288952 -0.33824009
 H -0.30068296 -0.95635944 0.94205365
 H -0.61100601 0.80178552 0.93611579
 Pt 4.90000000 0.00000000 0.00000000
 N 3.20262634 0.35089214 -1.14277586
 N 6.59836217 -0.35062221 1.14133452
 Cl 4.84758795 -2.37079413 -0.52471762
 Cl 4.95201555 2.37084813 0.52493884
 H 3.04595835 1.36171550 -1.13869776
 H 3.35762216 0.00704217 -2.09041960
 H 2.41145191 -0.13871515 -0.72457218
 H 6.75198203 -1.36190504 1.14242469
 H 7.38999111 0.13395643 0.71814946
 H 6.44712356 -0.00083815 2.08742539
