14

 O 0.00000000 0.00000000 0.00000000
 H -0.69984008 0.67846482 -0.04391435
 H -0.42564847 -0.87691865 0.04391862
 Pt 5.28814641 0.42109427 -0.13482107
 N 4.98556887 2.47500039 -0.14228973
 N 5.59059631 -1.63280592 -0.12911625
 Cl 2.90000000 0.00000000 0.00000000
 Cl 7.67636844 0.84241492 -0.26925212
 H 5.90263418 2.90952739 -0.27075317
 H 4.35327163 2.71950718 -0.90432765
 H 4.57491194 2.75524844 0.74843387
 H 4.67452534 -2.06759994 0.00527620
 H 5.99489802 -1.91246456 -1.02293368
 H 6.22833960 -1.87775462 0.62824336
