16

 C -0.44490722 -0.07748825 0.30799926
 H 0.44490722 0.07748825 -0.30799926
 H -1.31297144 -0.23288952 -0.33824009
 H -0.30068296 -0.95635944 0.94205365
 H -0.61100601 0.80178552 0.93611579
 Pt 4.80000000 0.00000000 0.00000000
 N 3.10262901 0.34766302 -1.14376633
 N 6.49632962 -0.34818257 1.14509790
 Cl 4.74793313 2.25944718 0.88934125
 Cl 4.85212519 -2.25936886 -0.88978795
 H 2.86155013 -0.53865031 -1.59393854
 H 2.34796269 0.66891217 -0.53749667
 H 3.31074255 1.06207309 -1.84152962
 H 6.74121553 0.53934237 1.59076994
 H 6.28473632 -1.05777302 1.84673036
 H 7.24972301 -0.67621366 0.54085957
