16

 C -1.07500079 -0.18955148 -0.06070570
 H 0.00000000 0.00000000 0.00000000
 H -1.37669277 -0.24437628 -1.11012769
 H -1.30675042 -1.13603660 0.43497383
 H -1.61661849 0.62219644 0.43220112
 Pt 4.98814641 0.42109427 -0.13482107
 N 4.68556887 2.47500039 -0.14228973
 N 5.29059631 -1.63280592 -0.12911625
 Cl 2.60000000 0.00000000 0.00000000
 Cl 7.37636844 0.84241492 -0.26925212
 H 5.60263418 2.90952739 -0.27075317
 H 4.05327163 2.71950718 -0.90432765
 H 4.27491194 2.75524844 0.74843387
 H 4.37452534 -2.06759994 0.00527620
 H 5.69489802 -1.91246456 -1.02293368
 H 5.92833960 -1.87775462 0.62824336
