14

 O 0.00000000 0.00000000 0.00000000
 H -0.69984008 0.67846482 -0.04391435
 H -0.42564847 -0.87691865 0.04391862
 Pt 4.50000000 0.00000000 0.00000000
 N 4.18610137 2.05097063 0.07159886
 N 4.81503129 -2.05071950 -0.07293358
 Cl 2.71260679 -0.28690142 -1.61915208
 Cl 6.28716550 0.28706814 1.61951184
 H 4.91219158 2.44127882 0.67722076
 H 4.24906550 2.43444138 -0.87141273
 H 3.25894289 2.23364884 0.45575044
 H 4.08555183 -2.44215119 -0.67371153
 H 5.73974557 -2.23200539 -0.46359632
 H 4.75924737 -2.43433448 0.87048448
