16

 C -1.07505074 0.18956029 0.05978665
 H 0.00000000 0.00000000 0.00000000
 H -1.48570823 0.28068029 -0.94935551
 H -1.56312712 -0.64002445 0.57825631
 H -1.25143950 1.11760028 0.61012321
 Pt 4.98814839 -0.42109464 0.13478497
 N 4.71061612 -2.44814605 -0.21760363
 N 5.26550153 1.60564861 0.48890574
 Cl 2.60000000 0.00000000 0.00000000
 Cl 7.37638653 -0.84234514 0.26914955
 H 5.62877365 -2.89175881 -0.13685814
 H 4.05932732 -2.82373055 0.47163098
 H 4.32965682 -2.57494520 -1.15534485
 H 4.34850807 2.05054466 0.40239734
 H 5.64002549 1.73129355 1.42939688
 H 5.92209134 1.98090744 -0.19547761
