 10
 274.765187
  C -1.555200 0.506251 -0.196771
  H 0.818181 -1.213371 0.906488
  H -1.302222 0.366863 -1.243862
  H -2.532220 0.159329 0.131868
  H -1.116084 1.363696 0.294330
  C 3.556029 0.500689 0.041485
  H 1.218479 -1.310280 0.936851
  H 3.045323 0.838444 -0.853774
  H 3.439674 1.138937 0.910406
  H 4.400602 -0.177921 -0.034232
 10
 255.863534
  C -1.563945 0.513289 -0.196569
  H 0.825014 -1.221752 0.915331
  H -1.319611 0.380531 -1.258699
  H -2.549449 0.166006 0.131893
  H -1.121019 1.362344 0.290208
  C 3.565281 0.503550 0.044499
  H 1.243257 -1.328318 0.949282
  H 3.040247 0.838383 -0.863089
  H 3.434985 1.136531 0.910145
  H 4.417751 -0.177296 -0.029102
 10
 235.242160
  C -1.582531 0.518680 -0.203887
  H 0.830039 -1.231170 0.919892
  H -1.348878 0.389377 -1.264166
  H -2.569991 0.170378 0.132421
  H -1.127853 1.369512 0.282043
  C 3.578058 0.507681 0.045093
  H 1.271529 -1.348092 0.960957
  H 3.054288 0.835985 -0.861828
  H 3.437861 1.137038 0.912327
  H 4.430001 -0.176265 -0.029208
 10
 214.673010
  C -1.605914 0.529952 -0.211634
  H 0.833763 -1.240700 0.926553
  H -1.380405 0.400638 -1.277186
  H -2.584507 0.176791 0.136467
  H -1.145418 1.371644 0.275096
  C 3.591981 0.510222 0.045863
  H 1.303917 -1.373210 0.976599
  H 3.069780 0.836026 -0.864827
  H 3.442942 1.136473 0.913114
  H 4.446356 -0.174386 -0.025828
 10
 197.828303
  C -1.629957 0.540806 -0.222302
  H 0.837166 -1.251062 0.930202
  H -1.415968 0.410991 -1.288734
  H -2.600542 0.180363 0.139897
  H -1.157087 1.378474 0.270210
  C 3.606517 0.513687 0.047731
  H 1.337663 -1.400865 0.991756
  H 3.085959 0.832936 -0.866749
  H 3.451200 1.140809 0.913308
  H 4.457547 -0.172706 -0.021139
 10
 183.199450
  C -1.652614 0.555480 -0.234181
  H 0.838588 -1.262598 0.938507
  H -1.452805 0.422918 -1.301826
  H -2.608268 0.185983 0.143923
  H -1.166228 1.380901 0.260046
  C 3.617119 0.519805 0.047490
  H 1.375246 -1.435281 1.012147
  H 3.098317 0.834597 -0.867822
  H 3.459753 1.142081 0.915805
  H 4.463373 -0.170253 -0.019561
 10
 172.269375
  C -1.674577 0.572133 -0.248726
  H 0.837853 -1.274275 0.945030
  H -1.481806 0.434821 -1.315729
  H -2.611148 0.188903 0.150139
  H -1.172314 1.388057 0.251916
  C 3.627068 0.526850 0.044416
  H 1.414471 -1.474595 1.034985
  H 3.104770 0.832609 -0.864846
  H 3.463036 1.144637 0.916322
  H 4.465125 -0.165461 -0.018908
 10
 165.088714
  C -1.685889 0.593201 -0.264828
  H 0.833339 -1.282560 0.950765
  H -1.491382 0.447409 -1.327017
  H -2.597261 0.189228 0.160771
  H -1.170666 1.395574 0.238965
  C 3.624054 0.534702 0.039658
  H 1.457079 -1.518510 1.060758
  H 3.089232 0.830466 -0.861389
  H 3.454644 1.142903 0.917894
  H 4.459318 -0.158618 -0.020787
 10
 162.815902
  C -1.683327 0.609219 -0.277649
  H 0.835297 -1.285035 0.951582
  H -1.484280 0.455396 -1.333579
  H -2.577418 0.186256 0.169578
  H -1.156583 1.405381 0.229938
  C 3.607390 0.539599 0.036068
  H 1.492611 -1.548148 1.077921
  H 3.060258 0.824899 -0.856649
  H 3.439107 1.139901 0.919529
  H 4.439428 -0.153813 -0.022208
 10
 162.360333
  C -1.673880 0.617088 -0.282049
  H 0.839444 -1.277721 0.948003
  H -1.472674 0.454676 -1.335907
  H -2.556683 0.184317 0.175464
  H -1.141857 1.407160 0.226545
  C 3.589722 0.540931 0.035428
  H 1.511273 -1.550912 1.079252
  H 3.034309 0.818892 -0.854822
  H 3.422901 1.133546 0.924770
  H 4.419933 -0.154396 -0.022289
 10
 162.152934
  C -1.663416 0.620723 -0.283918
  H 0.842938 -1.267682 0.942493
  H -1.460912 0.450764 -1.335127
  H -2.539090 0.180977 0.179609
  H -1.126684 1.407645 0.226151
  C 3.574244 0.540857 0.035407
  H 1.520943 -1.543034 1.074067
  H 3.013890 0.811926 -0.852179
  H 3.408480 1.127120 0.929543
  H 4.402111 -0.155878 -0.021944
 10
 161.989385
  C -1.652278 0.622400 -0.283982
  H 0.846134 -1.255489 0.935850
  H -1.449275 0.445477 -1.334000
  H -2.523167 0.177423 0.183591
  H -1.112605 1.406788 0.227028
  C 3.560123 0.539909 0.036243
  H 1.526773 -1.530052 1.065848
  H 2.995461 0.804958 -0.850084
  H 3.394832 1.120272 0.934357
  H 4.386519 -0.158399 -0.020980
 10
 161.832671
  C -1.639580 0.623097 -0.283332
  H 0.849595 -1.242055 0.928443
  H -1.435882 0.439828 -1.332050
  H -2.506478 0.173933 0.187466
  H -1.097488 1.405363 0.228258
  C 3.544843 0.538158 0.037385
  H 1.531958 -1.514680 1.056189
  H 2.976112 0.797730 -0.847682
  H 3.379281 1.113256 0.938794
  H 4.370167 -0.161483 -0.019847
 10
 161.671016
  C -1.624532 0.623008 -0.282088
  H 0.853663 -1.226879 0.920034
  H -1.419785 0.433878 -1.329604
  H -2.488005 0.170331 0.191608
  H -1.080402 1.403507 0.229835
  C 3.527165 0.535386 0.038878
  H 1.537638 -1.496710 1.045047
  H 2.954303 0.790028 -0.844877
  H 3.360766 1.105781 0.942993
  H 4.351733 -0.165331 -0.018465
 10
 161.489320
  C -1.606039 0.622110 -0.280212
  H 0.858654 -1.209005 0.910100
  H -1.399797 0.427390 -1.326470
  H -2.466409 0.166376 0.196225
  H -1.060135 1.401131 0.231863
  C 3.505664 0.531302 0.040775
  H 1.544456 -1.475050 1.031821
  H 2.928488 0.781369 -0.841488
  H 3.337936 1.097394 0.947203
  H 4.329741 -0.170188 -0.016760
