 16
 51.528641
  C 1.575880 0.134690 0.454513
  H 1.815554 0.147058 -0.603306
  H 0.585261 -0.312282 0.598926
  H 2.161779 -0.658335 1.038522
  H 1.602046 1.120213 0.910889
  Pt 3.984648 -0.302482 1.009182
  N 2.500871 0.628292 -2.929358
  N 5.990706 -0.423500 1.356181
  Cl 3.971089 1.634513 2.471679
  Cl 4.166810 -2.255171 -0.415378
  H 2.536903 -0.366842 -2.800073
  H 2.134843 1.216699 -2.205473
  H 2.570295 1.015609 -3.851236
  H 6.293408 0.493473 1.695192
  H 6.114812 -1.122508 2.091104
  H 6.476733 -0.703079 0.503183
 16
 51.383086
  C 1.569798 0.132339 0.463537
  H 1.812474 0.143714 -0.593232
  H 0.579553 -0.315530 0.606504
  H 2.157476 -0.656109 1.051175
  H 1.597077 1.118804 0.918188
  Pt 3.981312 -0.304320 1.013996
  N 2.509228 0.629824 -2.937538
  N 5.989565 -0.421938 1.350549
  Cl 3.970822 1.631635 2.477739
  Cl 4.159341 -2.255437 -0.413025
  H 2.548695 -0.364663 -2.805927
  H 2.141043 1.217770 -2.214204
  H 2.582134 1.015549 -3.859603
  H 6.292586 0.496023 1.686158
  H 6.120108 -1.119792 2.085371
  H 6.470404 -0.701662 0.494834
 16
 51.257455
  C 1.564570 0.130426 0.472010
  H 1.809964 0.140612 -0.584630
  H 0.574838 -0.318396 0.613681
  H 2.153819 -0.654389 1.063887
  H 1.592235 1.117613 0.924919
  Pt 3.978177 -0.306031 1.018236
  N 2.516951 0.631254 -2.944857
  N 5.988071 -0.420444 1.345308
  Cl 3.970573 1.628805 2.483152
  Cl 4.152450 -2.255549 -0.411299
  H 2.559900 -0.362753 -2.811110
  H 2.146983 1.218532 -2.222340
  H 2.592940 1.015516 -3.867159
  H 6.291475 0.498576 1.677799
  H 6.124522 -1.117355 2.079928
  H 6.464130 -0.700333 0.486973
 16
 51.147091
  C 1.559951 0.128628 0.479847
  H 1.807735 0.137758 -0.576338
  H 0.570750 -0.321427 0.620238
  H 2.150383 -0.652404 1.075625
  H 1.587341 1.116644 0.931175
  Pt 3.975081 -0.307585 1.022071
  N 2.524201 0.632468 -2.951546
  N 5.986571 -0.419089 1.340341
  Cl 3.970221 1.626248 2.488168
  Cl 4.145957 -2.255631 -0.409858
  H 2.570723 -0.360952 -2.815643
  H 2.152472 1.219495 -2.229663
  H 2.602977 1.015273 -3.874139
  H 6.290409 0.500807 1.669789
  H 6.128628 -1.114986 2.074755
  H 6.458186 -0.699276 0.479656
 16
 51.048803
  C 1.555802 0.127068 0.487193
  H 1.805798 0.135062 -0.568755
  H 0.567164 -0.324311 0.626322
  H 2.147211 -0.650545 1.087016
  H 1.582440 1.115821 0.936937
  Pt 3.972118 -0.308997 1.025517
  N 2.531030 0.633568 -2.957569
  N 5.985001 -0.417810 1.335602
  Cl 3.969903 1.623809 2.492769
  Cl 4.139834 -2.255568 -0.408780
  H 2.581179 -0.359323 -2.819582
  H 2.157724 1.220296 -2.236467
  H 2.612335 1.014985 -3.880431
  H 6.289318 0.502944 1.662207
  H 6.132283 -1.112816 2.069762
  H 6.452431 -0.698310 0.472718
 16
 50.960201
  C 1.552024 0.125613 0.494082
  H 1.804053 0.132526 -0.561529
  H 0.563979 -0.327241 0.631942
  H 2.144189 -0.648591 1.097792
  H 1.577511 1.115132 0.942300
  Pt 3.969245 -0.310257 1.028644
  N 2.537513 0.634517 -2.963069
  N 5.983434 -0.416621 1.331050
  Cl 3.969606 1.621569 2.497056
  Cl 4.134012 -2.255390 -0.407950
  H 2.591344 -0.357797 -2.822988
  H 2.162676 1.221130 -2.242704
  H 2.621142 1.014578 -3.886218
  H 6.288260 0.504884 1.654937
  H 6.135642 -1.110768 2.064958
  H 6.446927 -0.697497 0.466142
 16
 50.879473
  C 1.548536 0.124294 0.500590
  H 1.802485 0.130110 -0.554756
  H 0.561114 -0.330120 0.637178
  H 2.141328 -0.646666 1.108186
  H 1.572567 1.114548 0.947289
  Pt 3.966493 -0.311374 1.031479
  N 2.543695 0.635356 -2.968068
  N 5.981853 -0.415500 1.326657
  Cl 3.969377 1.619460 2.501030
  Cl 4.128461 -2.255082 -0.407389
  H 2.601249 -0.356391 -2.825911
  H 2.167423 1.221880 -2.248502
  H 2.629470 1.014108 -3.891486
  H 6.287216 0.506716 1.647989
  H 6.138669 -1.108866 2.060283
  H 6.441610 -0.696765 0.459861
 16
 50.805349
  C 1.545279 0.123059 0.506751
  H 1.801046 0.127809 -0.548299
  H 0.558513 -0.333010 0.642055
  H 2.138588 -0.644700 1.118132
  H 1.567609 1.114046 0.951951
  Pt 3.963831 -0.312349 1.034058
  N 2.549616 0.636080 -2.972637
  N 5.980293 -0.414448 1.322402
  Cl 3.969203 1.617512 2.504751
  Cl 4.123127 -2.254646 -0.407041
  H 2.610930 -0.355073 -2.828396
  H 2.171956 1.222607 -2.253871
  H 2.637392 1.013558 -3.896332
  H 6.286211 0.508404 1.641312
  H 6.141443 -1.107079 2.055741
  H 6.436503 -0.696126 0.453842
 16
 50.736682
  C 1.542207 0.121906 0.512608
  H 1.799718 0.125605 -0.542162
  H 0.556117 -0.335893 0.646623
  H 2.135963 -0.642730 1.127720
  H 1.562644 1.113612 0.956321
  Pt 3.961269 -0.313190 1.036403
  N 2.555307 0.636704 -2.976813
  N 5.978743 -0.413451 1.318270
  Cl 3.969110 1.615695 2.508230
  Cl 4.117989 -2.254083 -0.406902
  H 2.620410 -0.353841 -2.830481
  H 2.176315 1.223281 -2.258870
  H 2.644960 1.012948 -3.900784
  H 6.285236 0.509983 1.634893
  H 6.143962 -1.105404 2.051303
  H 6.431581 -0.695556 0.448048
 16
 50.672668
  C 1.539286 0.120816 0.518193
  H 1.798481 0.123488 -0.536289
  H 0.553898 -0.338777 0.650915
  H 2.133441 -0.640738 1.136955
  H 1.557675 1.113241 0.960439
  Pt 3.958796 -0.313902 1.038541
  N 2.560801 0.637236 -2.980638
  N 5.977210 -0.412504 1.314238
  Cl 3.969088 1.614000 2.511488
  Cl 4.113020 -2.253410 -0.406955
  H 2.629718 -0.352685 -2.832203
  H 2.180514 1.223917 -2.263529
  H 2.652225 1.012271 -3.904875
  H 6.284290 0.511460 1.628700
  H 6.146255 -1.103833 2.046960
  H 6.426824 -0.695040 0.442458
 16
 50.612623
  C 1.536486 0.119784 0.523535
  H 1.797319 0.121449 -0.530668
  H 0.551826 -0.341654 0.654963
  H 2.131006 -0.638734 1.145876
  H 1.552709 1.112906 0.964321
  Pt 3.956411 -0.314498 1.040487
  N 2.566115 0.637682 -2.984139
  N 5.975698 -0.411607 1.310299
  Cl 3.969138 1.612430 2.514553
  Cl 4.108207 -2.252615 -0.407175
  H 2.638866 -0.351593 -2.833593
  H 2.184578 1.224501 -2.267881
  H 2.659219 1.011541 -3.908645
  H 6.283377 0.512841 1.622721
  H 6.148338 -1.102358 2.042693
  H 6.422225 -0.694573 0.437044
 16
 50.556110
  C 1.533787 0.118795 0.528656
  H 1.796217 0.119482 -0.525253
  H 0.549874 -0.344538 0.658790
  H 2.128648 -0.636704 1.154488
  H 1.547743 1.112602 0.967994
  Pt 3.954106 -0.314979 1.042261
  N 2.571273 0.638047 -2.987353
  N 5.974205 -0.410751 1.306439
  Cl 3.969266 1.610973 2.517446
  Cl 4.103518 -2.251713 -0.407558
  H 2.647877 -0.350562 -2.834677
  H 2.188512 1.225051 -2.271950
  H 2.665978 1.010750 -3.912119
  H 6.282494 0.514129 1.616933
  H 6.150238 -1.100965 2.038501
  H 6.417775 -0.694147 0.431788
 16
 50.502574
  C 1.531174 0.117851 0.533568
  H 1.795172 0.117580 -0.520052
  H 0.548024 -0.347412 0.662407
  H 2.126374 -0.634671 1.162832
  H 1.542789 1.112336 0.971477
  Pt 3.951867 -0.315356 1.043874
  N 2.576284 0.638340 -2.990293
  N 5.972736 -0.409931 1.302651
  Cl 3.969452 1.609610 2.520169
  Cl 4.098940 -2.250708 -0.408092
  H 2.656756 -0.349587 -2.835473
  H 2.192336 1.225549 -2.275758
  H 2.672522 1.009907 -3.915305
  H 6.281650 0.515346 1.611327
  H 6.151967 -1.099660 2.034375
  H 6.413469 -0.693751 0.426673
 16
 50.451678
  C 1.528633 0.116943 0.538297
  H 1.794170 0.115743 -0.515029
  H 0.546268 -0.350288 0.665848
  H 2.124174 -0.632616 1.170910
  H 1.537842 1.112082 0.974783
  Pt 3.949700 -0.315633 1.045347
  N 2.581164 0.638562 -2.992988
  N 5.971285 -0.409147 1.298933
  Cl 3.969712 1.608342 2.522753
  Cl 4.094468 -2.249604 -0.408759
  H 2.665515 -0.348659 -2.836009
  H 2.196055 1.226012 -2.279323
  H 2.678877 1.009015 -3.918258
  H 6.280825 0.516479 1.605879
  H 6.153532 -1.098419 2.030302
  H 6.409291 -0.693384 0.421692
 16
 50.403119
  C 1.526150 0.116068 0.542850
  H 1.793207 0.113959 -0.510184
  H 0.544585 -0.353152 0.669118
  H 2.122037 -0.630555 1.178742
  H 1.532911 1.111858 0.977933
  Pt 3.947593 -0.315823 1.046682
  N 2.585921 0.638718 -2.995447
  N 5.969860 -0.408392 1.295270
  Cl 3.970027 1.607161 2.525205
  Cl 4.090084 -2.248404 -0.409559
  H 2.674163 -0.347777 -2.836300
  H 2.199687 1.226421 -2.282668
  H 2.685057 1.008074 -3.920964
  H 6.280034 0.517553 1.600588
  H 6.154960 -1.097261 2.026288
  H 6.405231 -0.693032 0.416822
