 16
 141.880536
  C -2.889240 -0.078839 0.647275
  H -1.297129 -0.274289 0.614374
  H -3.284850 -0.002999 -0.377248
  H -3.313377 -0.957925 1.145276
  H -3.136195 0.824242 1.221746
  Pt 6.268873 0.476032 -0.409665
  N -0.378574 -0.385457 0.475580
  N 7.980897 1.108833 0.303357
  Cl 5.632707 2.783667 0.072250
  Cl 6.698747 -1.830536 -0.895853
  H -0.168055 -1.378573 0.368845
  H 0.157312 0.018638 1.243792
  H -0.185386 0.094159 -0.418188
  H 7.838721 2.082687 0.593141
  H 8.221845 0.509588 1.097957
  H 8.699417 1.015218 -0.418544
 16
 136.626556
  C -2.885287 -0.083318 0.648352
  H -1.329586 -0.271041 0.616496
  H -3.279658 -0.007166 -0.372836
  H -3.309808 -0.961564 1.146320
  H -3.131464 0.820701 1.222690
  Pt 6.272328 0.481823 -0.404066
  N -0.383193 -0.383344 0.475331
  N 7.983760 1.102436 0.299786
  Cl 5.626178 2.793658 0.075754
  Cl 6.721065 -1.824638 -0.887133
  H -0.170176 -1.374248 0.366048
  H 0.158668 0.018920 1.242569
  H -0.191578 0.100946 -0.417231
  H 7.846767 2.076914 0.588206
  H 8.225562 0.506347 1.094395
  H 8.692344 1.006922 -0.420067
 16
 131.371588
  C -2.887518 -0.087890 0.649790
  H -1.357524 -0.272373 0.614607
  H -3.289999 -0.005839 -0.381753
  H -3.319285 -0.972134 1.144254
  H -3.139255 0.815873 1.230855
  Pt 6.272702 0.479352 -0.402223
  N -0.384008 -0.379444 0.471997
  N 7.997068 1.102919 0.302046
  Cl 5.617207 2.792403 0.069827
  Cl 6.729962 -1.826470 -0.876765
  H -0.171777 -1.370054 0.361313
  H 0.160176 0.023500 1.243023
  H -0.196271 0.105253 -0.419236
  H 7.861461 2.074643 0.594166
  H 8.243100 0.505414 1.089905
  H 8.709157 1.013452 -0.427335
 16
 125.555141
  C -2.885904 -0.094477 0.645101
  H -1.385084 -0.271603 0.612336
  H -3.287207 -0.015417 -0.371460
  H -3.319053 -0.958273 1.130467
  H -3.151184 0.801446 1.217840
  Pt 6.263094 0.477759 -0.405022
  N -0.376642 -0.377778 0.469494
  N 8.011871 1.104985 0.304513
  Cl 5.600395 2.782707 0.066309
  Cl 6.706923 -1.827041 -0.880977
  H -0.168422 -1.372040 0.360496
  H 0.162290 0.024833 1.240225
  H -0.193267 0.113302 -0.436598
  H 7.876939 2.086368 0.596697
  H 8.261508 0.507993 1.095705
  H 8.727158 1.009320 -0.422794
 16
 119.574659
  C -2.874144 -0.093680 0.627659
  H -1.409253 -0.272207 0.597141
  H -3.275457 -0.007683 -0.390974
  H -3.326439 -0.976949 1.120419
  H -3.144902 0.803914 1.206077
  Pt 6.243745 0.478688 -0.396033
  N -0.361121 -0.376210 0.451411
  N 8.015309 1.109755 0.306791
  Cl 5.580816 2.762446 0.064490
  Cl 6.672801 -1.836067 -0.867479
  H -0.139932 -1.369016 0.337890
  H 0.180566 0.028247 1.219140
  H -0.182877 0.110616 -0.450871
  H 7.885006 2.086476 0.596374
  H 8.254411 0.517673 1.099590
  H 8.720739 1.013866 -0.421218
 16
 113.741650
  C -2.857433 -0.093256 0.610462
  H -1.435463 -0.277066 0.585914
  H -3.259712 -0.013351 -0.404546
  H -3.318263 -0.960362 1.099575
  H -3.138159 0.805339 1.185433
  Pt 6.229016 0.483588 -0.388023
  N -0.337604 -0.378145 0.439758
  N 8.002644 1.110801 0.310690
  Cl 5.558200 2.752157 0.066314
  Cl 6.635527 -1.831906 -0.856759
  H -0.109731 -1.372101 0.322187
  H 0.194928 0.026335 1.206276
  H -0.168069 0.104786 -0.438492
  H 7.876449 2.084219 0.602761
  H 8.250900 0.519434 1.097771
  H 8.713166 1.010199 -0.432612
 16
 108.380590
  C -2.837284 -0.100226 0.585924
  H -1.467116 -0.275797 0.560673
  H -3.242085 -0.013994 -0.428905
  H -3.307606 -0.966541 1.072952
  H -3.121080 0.799829 1.160450
  Pt 6.215007 0.478853 -0.381606
  N -0.319127 -0.375753 0.417374
  N 7.989218 1.110184 0.313659
  Cl 5.544610 2.742012 0.059806
  Cl 6.603718 -1.834504 -0.837470
  H -0.080451 -1.365006 0.293478
  H 0.213396 0.022067 1.182419
  H -0.153207 0.113184 -0.458139
  H 7.863389 2.085266 0.602206
  H 8.235772 0.524046 1.107020
  H 8.693064 1.007052 -0.431129
 16
 101.719902
  C -2.826844 -0.101651 0.562316
  H -1.506726 -0.278254 0.548348
  H -3.237182 -0.031961 -0.455002
  H -3.310198 -0.960291 1.052520
  H -3.119368 0.798323 1.137142
  Pt 6.203957 0.479368 -0.381987
  N -0.293224 -0.376768 0.399495
  N 7.985027 1.108061 0.321594
  Cl 5.534612 2.735333 0.050094
  Cl 6.565474 -1.833709 -0.836146
  H -0.046019 -1.364172 0.272166
  H 0.236567 0.027722 1.161631
  H -0.136439 0.110099 -0.488405
  H 7.858038 2.086410 0.605601
  H 8.236312 0.522190 1.117022
  H 8.681083 1.009536 -0.420982
 16
 94.559100
  C -2.814577 -0.110355 0.533576
  H -1.548883 -0.276125 0.522495
  H -3.223404 -0.037033 -0.483669
  H -3.312131 -0.972444 1.008384
  H -3.116539 0.794348 1.096437
  Pt 6.194297 0.473076 -0.378454
  N -0.261309 -0.378997 0.376003
  N 7.975044 1.100187 0.325851
  Cl 5.504529 2.749673 0.051780
  Cl 6.545552 -1.819694 -0.820910
  H -0.008857 -1.362187 0.254816
  H 0.259093 0.035830 1.138976
  H -0.118668 0.113424 -0.516790
  H 7.848719 2.081618 0.596852
  H 8.227822 0.520850 1.124600
  H 8.668248 0.989404 -0.416129
 16
 88.138153
  C -2.800333 -0.164860 0.416807
  H -1.596163 -0.311066 0.424897
  H -3.194965 -0.121362 -0.608203
  H -3.310489 -1.044095 0.887508
  H -3.129554 0.728540 0.949214
  Pt 6.182725 0.474481 -0.357079
  N -0.229372 -0.404958 0.296994
  N 7.951074 1.102155 0.332354
  Cl 5.507875 2.771365 0.066786
  Cl 6.497296 -1.833491 -0.787921
  H 0.040469 -1.380341 0.183056
  H 0.271526 0.027717 1.067989
  H -0.094702 0.091081 -0.592702
  H 7.826966 2.081363 0.594317
  H 8.203372 0.532690 1.133639
  H 8.643976 0.975696 -0.412698
 16
 83.409007
  C -2.795045 -0.167156 0.431546
  H -1.628130 -0.302226 0.431668
  H -3.191543 -0.122593 -0.592223
  H -3.299299 -1.037281 0.884494
  H -3.140526 0.729579 0.976578
  Pt 6.175502 0.473123 -0.355897
  N -0.199509 -0.395946 0.300513
  N 7.938682 1.096275 0.335070
  Cl 5.495958 2.754650 0.056684
  Cl 6.485366 -1.832851 -0.785319
  H 0.080814 -1.363926 0.182720
  H 0.298453 0.040275 1.074238
  H -0.079019 0.107525 -0.589709
  H 7.814553 2.078949 0.592887
  H 8.195623 0.527760 1.137902
  H 8.621605 0.973475 -0.413602
 16
 110.741873
  C -2.800333 -0.164860 0.416807
  H -1.596163 -0.311066 0.424897
  H -3.194965 -0.121362 -0.608203
  H -3.310489 -1.044095 0.887508
  H -3.129554 0.728540 0.949214
  Pt 6.182725 0.474481 -0.357079
  N -0.229372 -0.404958 0.296994
  N 7.951074 1.102155 0.332354
  Cl 5.507875 2.771365 0.066786
  Cl 6.497296 -1.833491 -0.787921
  H 0.040469 -1.380341 0.183056
  H 0.271526 0.027717 1.067989
  H -0.094702 0.091081 -0.592702
  H 7.826966 2.081363 0.594317
  H 8.203372 0.532690 1.133639
  H 8.643976 0.975696 -0.412698
 16
 88.315914
  C -2.809430 -0.172475 0.418091
  H -1.610487 -0.313264 0.424235
  H -3.180324 -0.115730 -0.611707
  H -3.367336 -1.054771 0.898693
  H -3.136494 0.718928 0.953381
  Pt 6.192021 0.468683 -0.356952
  N -0.217583 -0.413598 0.295730
  N 7.964902 1.106875 0.333922
  Cl 5.502115 2.775400 0.064201
  Cl 6.497709 -1.843816 -0.786099
  H 0.033662 -1.372111 0.182439
  H 0.286757 0.025898 1.070168
  H -0.105377 0.106139 -0.623281
  H 7.831429 2.073060 0.593259
  H 8.205795 0.540177 1.141851
  H 8.681486 0.987943 -0.419147
 16
 83.119397
  C -2.810916 -0.156626 0.434180
  H -1.640988 -0.302728 0.438271
  H -3.189885 -0.099329 -0.606028
  H -3.372426 -1.007946 0.898464
  H -3.121232 0.743814 0.976287
  Pt 6.192565 0.452445 -0.377577
  N -0.185987 -0.423861 0.301365
  N 7.951991 1.111558 0.338808
  Cl 5.423334 2.710923 0.049617
  Cl 6.573555 -1.866811 -0.819225
  H 0.070841 -1.404189 0.183211
  H 0.318245 0.018023 1.052902
  H -0.094156 0.107940 -0.632748
  H 7.798126 2.088168 0.599948
  H 8.194711 0.549127 1.151761
  H 8.661377 1.006838 -0.398314
 16
 78.406944
  C -2.811152 -0.158697 0.438769
  H -1.672924 -0.295548 0.441992
  H -3.188669 -0.087786 -0.599728
  H -3.378536 -0.998629 0.894207
  H -3.110138 0.744770 0.988029
  Pt 6.182044 0.442558 -0.385813
  N -0.145496 -0.420405 0.296281
  N 7.934211 1.107319 0.339289
  Cl 5.359038 2.677796 0.041300
  Cl 6.603910 -1.876104 -0.824050
  H 0.112333 -1.391694 0.175018
  H 0.363922 0.027058 1.046343
  H -0.070716 0.109535 -0.635573
  H 7.772132 2.084936 0.602779
  H 8.173045 0.552008 1.160433
  H 8.645742 1.008947 -0.393850
 16
 75.055786
  C -2.824745 -0.178159 0.427915
  H -1.713659 -0.292762 0.429716
  H -3.203813 -0.105862 -0.596181
  H -3.399344 -1.037059 0.901753
  H -3.102957 0.709542 0.966186
  Pt 6.166982 0.459316 -0.343437
  N -0.111195 -0.396833 0.287147
  N 7.922794 1.087260 0.329855
  Cl 5.401869 2.750354 0.074821
  Cl 6.534680 -1.847191 -0.771442
  H 0.147665 -1.359510 0.171642
  H 0.418808 0.054856 1.043897
  H -0.044924 0.119290 -0.615709
  H 7.783170 2.060591 0.587228
  H 8.167073 0.528293 1.138979
  H 8.628129 0.979455 -0.422894
