 16
 178.994698
  C -0.750491 -0.524147 -2.894338
  H 1.314652 0.203170 -3.929781
  H -0.976988 -0.370926 -3.954598
  H -1.304668 -1.389593 -2.531396
  H -0.973723 0.371681 -2.320023
  Pt 5.949858 0.334024 -1.038316
  N 5.657476 2.371232 -0.660718
  N 6.244260 -1.699412 -1.461405
  Cl 0.918621 -0.962672 -2.760826
  Cl 8.418539 1.082713 -0.601330
  H 6.595203 2.650000 -0.350493
  H 5.397522 2.844335 -1.522796
  H 4.959909 2.520097 0.065392
  H 5.358973 -2.132516 -1.694146
  H 6.899797 -1.760089 -2.245569
  H 6.652773 -2.141677 -0.632087
 16
 177.002089
  C -0.783048 -0.478265 -2.890595
  H 1.311563 0.242414 -3.940297
  H -1.010928 -0.320739 -3.953099
  H -1.338501 -1.335206 -2.524757
  H -0.993500 0.419752 -2.315313
  Pt 5.952519 0.342400 -1.037302
  N 5.661702 2.370237 -0.646840
  N 6.263388 -1.696090 -1.461540
  Cl 0.893494 -0.940340 -2.760361
  Cl 8.404855 1.075086 -0.614703
  H 6.600181 2.655751 -0.337107
  H 5.399310 2.845536 -1.504109
  H 4.964261 2.509455 0.079517
  H 5.382224 -2.137928 -1.693590
  H 6.918073 -1.757293 -2.248065
  H 6.677777 -2.137386 -0.633851
 16
 174.427566
  C -0.803151 -0.447643 -2.881258
  H 1.326085 0.287463 -3.946869
  H -1.024763 -0.278714 -3.950131
  H -1.359545 -1.296766 -2.520105
  H -0.997881 0.448575 -2.295530
  Pt 5.968942 0.339921 -1.038905
  N 5.657746 2.369398 -0.641356
  N 6.270517 -1.695840 -1.462906
  Cl 0.888329 -0.932198 -2.763165
  Cl 8.412205 1.061956 -0.624205
  H 6.586948 2.664029 -0.333353
  H 5.390147 2.846739 -1.502228
  H 4.961035 2.509497 0.089579
  H 5.386535 -2.153441 -1.697369
  H 6.922605 -1.753705 -2.246453
  H 6.682992 -2.137757 -0.644682
 16
 171.698700
  C -0.840483 -0.411510 -2.876345
  H 1.332082 0.340523 -3.963835
  H -1.053730 -0.225742 -3.946187
  H -1.403662 -1.259931 -2.519110
  H -1.020737 0.477542 -2.280605
  Pt 5.970690 0.340005 -1.037028
  N 5.666875 2.367609 -0.630515
  N 6.288569 -1.692469 -1.460542
  Cl 0.869534 -0.915360 -2.767003
  Cl 8.397641 1.045925 -0.628846
  H 6.592162 2.674619 -0.324139
  H 5.396934 2.841939 -1.491684
  H 4.969707 2.509543 0.097687
  H 5.409979 -2.159007 -1.693750
  H 6.936291 -1.744034 -2.251027
  H 6.710161 -2.134283 -0.644015
 16
 169.451135
  C -0.864030 -0.405458 -2.876585
  H 1.351407 0.364574 -3.978964
  H -1.064373 -0.210882 -3.945620
  H -1.436093 -1.254498 -2.520400
  H -1.040969 0.485069 -2.275322
  Pt 5.980118 0.338520 -1.031548
  N 5.671782 2.365365 -0.625469
  N 6.297936 -1.693522 -1.458211
  Cl 0.865851 -0.922363 -2.764834
  Cl 8.401715 1.040345 -0.626778
  H 6.594288 2.687257 -0.326647
  H 5.395143 2.839915 -1.489613
  H 4.981274 2.516062 0.105045
  H 5.417012 -2.164529 -1.694005
  H 6.942940 -1.739587 -2.251676
  H 6.717069 -2.135113 -0.647111
 16
 167.226082
  C -0.906878 -0.349469 -2.864127
  H 1.368601 0.448475 -3.987340
  H -1.097268 -0.136516 -3.932686
  H -1.487973 -1.200437 -2.518331
  H -1.067818 0.532678 -2.250056
  Pt 5.982051 0.346692 -1.020509
  N 5.674931 2.359253 -0.615267
  N 6.315703 -1.691783 -1.460076
  Cl 0.840698 -0.886941 -2.759226
  Cl 8.402797 1.028578 -0.614807
  H 6.584656 2.695274 -0.314483
  H 5.396186 2.831770 -1.485669
  H 4.985671 2.515121 0.113642
  H 5.439494 -2.170636 -1.693796
  H 6.960773 -1.725832 -2.258745
  H 6.741795 -2.134781 -0.650360
 16
 165.205263
  C -0.947695 -0.308346 -2.853196
  H 1.397953 0.514144 -4.002967
  H -1.131837 -0.075787 -3.926392
  H -1.537849 -1.154371 -2.517218
  H -1.087743 0.565855 -2.225822
  Pt 5.978939 0.342097 -1.019897
  N 5.680256 2.355775 -0.606258
  N 6.333156 -1.690040 -1.461405
  Cl 0.815341 -0.866366 -2.753405
  Cl 8.407726 1.006032 -0.612072
  H 6.583776 2.710044 -0.310056
  H 5.395393 2.821733 -1.481228
  H 4.992555 2.516080 0.127649
  H 5.461922 -2.174559 -1.696120
  H 6.974387 -1.710988 -2.261385
  H 6.765958 -2.131161 -0.656200
 16
 163.259697
  C -0.973080 -0.254796 -2.837641
  H 1.433368 0.604387 -4.013705
  H -1.143391 -0.002778 -3.887216
  H -1.572778 -1.095013 -2.511978
  H -1.091435 0.610134 -2.197560
  Pt 5.985798 0.345065 -1.015993
  N 5.671109 2.349003 -0.603335
  N 6.337321 -1.688336 -1.467406
  Cl 0.795150 -0.837728 -2.747740
  Cl 8.427648 0.993558 -0.611232
  H 6.561656 2.720073 -0.306831
  H 5.382080 2.808500 -1.478457
  H 4.979800 2.501299 0.136818
  H 5.468263 -2.177871 -1.696289
  H 6.978534 -1.704902 -2.269452
  H 6.777336 -2.128067 -0.664032
 16
 161.536811
  C -1.019090 -0.224973 -2.829872
  H 1.467942 0.661078 -4.032902
  H -1.185918 0.047367 -3.882097
  H -1.630421 -1.061724 -2.520465
  H -1.111557 0.631685 -2.166583
  Pt 5.980954 0.327238 -1.018132
  N 5.679078 2.354011 -0.599387
  N 6.354159 -1.682584 -1.469150
  Cl 0.757867 -0.835789 -2.753171
  Cl 8.430089 0.957659 -0.608597
  H 6.583720 2.726201 -0.304604
  H 5.387237 2.811908 -1.469258
  H 4.990403 2.500917 0.140087
  H 5.503764 -2.181265 -1.700035
  H 6.993872 -1.688224 -2.273418
  H 6.804966 -2.112259 -0.658549
 16
 160.177636
  C -1.026116 -0.188557 -2.809635
  H 1.527395 0.738529 -4.036817
  H -1.193544 0.100016 -3.860261
  H -1.646798 -1.023948 -2.509451
  H -1.099188 0.655880 -2.132950
  Pt 5.967467 0.336651 -1.013780
  N 5.664032 2.353241 -0.599008
  N 6.352675 -1.681275 -1.471567
  Cl 0.741478 -0.814708 -2.739223
  Cl 8.435562 0.960116 -0.599397
  H 6.570814 2.713577 -0.307991
  H 5.368649 2.811881 -1.468214
  H 4.974924 2.484798 0.136867
  H 5.502117 -2.193222 -1.708345
  H 6.993210 -1.686415 -2.272150
  H 6.803264 -2.100495 -0.663379
 16
 159.128636
  C -1.030728 -0.174071 -2.801058
  H 1.575903 0.788164 -4.043510
  H -1.206089 0.128453 -3.841307
  H -1.659217 -1.008420 -2.508107
  H -1.097706 0.663939 -2.113867
  Pt 5.960979 0.325037 -1.024748
  N 5.656098 2.354829 -0.604519
  N 6.353144 -1.678676 -1.475944
  Cl 0.734493 -0.809269 -2.735539
  Cl 8.432496 0.936020 -0.606810
  H 6.571981 2.701916 -0.316233
  H 5.358461 2.820338 -1.464744
  H 4.966802 2.480674 0.134992
  H 5.506377 -2.197596 -1.710028
  H 6.990109 -1.680075 -2.272600
  H 6.809682 -2.089061 -0.662742
 16
 158.319952
  C -1.034684 -0.145520 -2.786553
  H 1.624052 0.850870 -4.044369
  H -1.216955 0.166483 -3.821408
  H -1.669706 -0.977059 -2.500041
  H -1.097216 0.687157 -2.090793
  Pt 5.955174 0.322942 -1.036089
  N 5.642180 2.354457 -0.606546
  N 6.353789 -1.678935 -1.479480
  Cl 0.728753 -0.789667 -2.727594
  Cl 8.426879 0.917782 -0.617697
  H 6.568843 2.690260 -0.321597
  H 5.338902 2.829466 -1.456011
  H 4.955271 2.472387 0.136856
  H 5.511205 -2.203282 -1.709913
  H 6.989864 -1.679749 -2.275710
  H 6.815837 -2.082019 -0.664745
 16
 157.631040
  C -1.034795 -0.119669 -2.770835
  H 1.674287 0.909800 -4.040311
  H -1.221386 0.201381 -3.800282
  H -1.675086 -0.948178 -2.490540
  H -1.093128 0.707451 -2.068847
  Pt 5.944922 0.320995 -1.042763
  N 5.629360 2.353243 -0.609763
  N 6.352833 -1.679679 -1.484184
  Cl 0.725208 -0.769574 -2.716406
  Cl 8.417050 0.900422 -0.621194
  H 6.556647 2.683140 -0.326706
  H 5.321921 2.836731 -1.453593
  H 4.944800 2.465994 0.137315
  H 5.511928 -2.208272 -1.710979
  H 6.989498 -1.680087 -2.281833
  H 6.818223 -2.076174 -0.669004
 16
 157.218969
  C -1.031724 -0.119961 -2.766129
  H 1.709926 0.932638 -4.040596
  H -1.220900 0.204488 -3.792848
  H -1.674182 -0.948341 -2.488665
  H -1.090484 0.705324 -2.061078
  Pt 5.939700 0.322588 -1.046480
  N 5.623187 2.352519 -0.614099
  N 6.348976 -1.680551 -1.485033
  Cl 0.729367 -0.769424 -2.711117
  Cl 8.409747 0.897356 -0.620846
  H 6.553074 2.680969 -0.331369
  H 5.314145 2.839362 -1.454674
  H 4.940968 2.463947 0.134089
  H 5.506531 -2.210185 -1.709476
  H 6.985378 -1.682509 -2.282772
  H 6.815112 -2.074560 -0.670939
 16
 156.646996
  C -1.028828 -0.097133 -2.750557
  H 1.760599 0.984309 -4.031889
  H -1.220375 0.236154 -3.774291
  H -1.676470 -0.923146 -2.479000
  H -1.084839 0.722661 -2.039966
  Pt 5.930963 0.320225 -1.053561
  N 5.610191 2.350031 -0.618426
  N 6.345609 -1.680814 -1.490837
  Cl 0.728904 -0.750991 -2.699131
  Cl 8.401702 0.880570 -0.624854
  H 6.537943 2.677540 -0.336969
  H 5.297409 2.842567 -1.455186
  H 4.929447 2.457848 0.133666
  H 5.504735 -2.212141 -1.712094
  H 6.981490 -1.681924 -2.288729
  H 6.815246 -2.071894 -0.675337
