 16
 57.775180
  C 0.521748 -0.447627 -0.110153
  H 1.624571 -0.033937 0.033871
  H 0.418618 -0.658316 -1.171023
  H 0.456503 -1.369935 0.471385
  H -0.216728 0.287645 0.217244
  Pt 3.365866 -0.475315 0.020797
  N 2.451516 2.028965 -0.061867
  N 5.265302 -1.241563 0.046139
  Cl 3.525787 -0.324347 2.444752
  Cl 3.329066 -0.620587 -2.397401
  H 2.094108 2.105918 -1.005050
  H 1.916902 1.523899 0.664850
  H 2.941277 2.843104 0.276524
  H 5.534989 -1.192556 1.031631
  H 5.229487 -2.209983 -0.265982
  H 5.855130 -0.669102 -0.552674
 16
 55.752574
  C 0.506993 -0.452827 -0.111591
  H 1.595961 -0.042262 0.028070
  H 0.404844 -0.667571 -1.168433
  H 0.434168 -1.373030 0.473880
  H -0.225478 0.289871 0.216008
  Pt 3.371109 -0.471143 0.020534
  N 2.455806 2.033465 -0.056774
  N 5.277485 -1.243705 0.044599
  Cl 3.525335 -0.316288 2.444977
  Cl 3.338982 -0.623425 -2.397138
  H 2.099545 2.109525 -1.000552
  H 1.915443 1.539573 0.659052
  H 2.950947 2.843268 0.284277
  H 5.550800 -1.196079 1.030273
  H 5.243861 -2.212098 -0.269703
  H 5.868341 -0.671011 -0.554432
 16
 54.028354
  C 0.492444 -0.454611 -0.112681
  H 1.564860 -0.047588 0.027041
  H 0.389442 -0.665460 -1.167891
  H 0.409794 -1.373263 0.475676
  H -0.237938 0.292834 0.213598
  Pt 3.383731 -0.462827 0.023760
  N 2.454368 2.036106 -0.055143
  N 5.292409 -1.249756 0.042249
  Cl 3.534702 -0.311319 2.449542
  Cl 3.357998 -0.619702 -2.392673
  H 2.094810 2.107651 -0.997965
  H 1.909366 1.548694 0.657374
  H 2.955434 2.845033 0.281303
  H 5.566083 -1.205263 1.029212
  H 5.262670 -2.217528 -0.274436
  H 5.883970 -0.676737 -0.555919
 16
 52.069980
  C 0.476572 -0.459506 -0.113658
  H 1.535190 -0.053343 0.023594
  H 0.373409 -0.673712 -1.168663
  H 0.387087 -1.375459 0.476423
  H -0.252326 0.290656 0.210907
  Pt 3.405291 -0.444093 0.025380
  N 2.449649 2.040086 -0.051647
  N 5.304038 -1.259562 0.043110
  Cl 3.555918 -0.291402 2.450550
  Cl 3.384813 -0.603396 -2.391008
  H 2.089587 2.107610 -0.994478
  H 1.900483 1.564463 0.655468
  H 2.957289 2.845375 0.284352
  H 5.580105 -1.221690 1.030162
  H 5.270661 -2.226614 -0.276611
  H 5.896374 -0.693149 -0.560834
 16
 50.707437
  C 0.465897 -0.461146 -0.115404
  H 1.514176 -0.057196 0.020636
  H 0.361364 -0.678105 -1.173786
  H 0.372509 -1.374266 0.475814
  H -0.261502 0.288863 0.210004
  Pt 3.422358 -0.431291 0.028003
  N 2.446997 2.040252 -0.050537
  N 5.309615 -1.269192 0.044259
  Cl 3.572253 -0.269776 2.451395
  Cl 3.405362 -0.591073 -2.388929
  H 2.082507 2.104668 -0.990574
  H 1.895679 1.571629 0.656669
  H 2.956648 2.843207 0.288972
  H 5.593741 -1.229722 1.028162
  H 5.273334 -2.235198 -0.279932
  H 5.903204 -0.705391 -0.561707
 16
 49.363505
  C 0.457588 -0.462445 -0.118650
  H 1.496027 -0.059382 0.016489
  H 0.351942 -0.682255 -1.180108
  H 0.363266 -1.373137 0.473922
  H -0.270638 0.286651 0.204901
  Pt 3.438383 -0.418458 0.031287
  N 2.443108 2.037212 -0.044682
  N 5.313534 -1.277694 0.045843
  Cl 3.591271 -0.243365 2.451994
  Cl 3.420894 -0.582699 -2.386030
  H 2.076264 2.102148 -0.982733
  H 1.885870 1.579069 0.660179
  H 2.960705 2.836826 0.291419
  H 5.605669 -1.238118 1.026168
  H 5.272959 -2.241742 -0.283755
  H 5.907300 -0.716346 -0.563199
 16
 47.572773
  C 0.447524 -0.464606 -0.123078
  H 1.475046 -0.061150 0.011588
  H 0.340149 -0.689868 -1.185603
  H 0.353256 -1.371894 0.473099
  H -0.282908 0.283594 0.196044
  Pt 3.458678 -0.399623 0.034976
  N 2.437154 2.030704 -0.037265
  N 5.318301 -1.288514 0.047827
  Cl 3.616374 -0.208623 2.452512
  Cl 3.438751 -0.564308 -2.383222
  H 2.069576 2.098578 -0.974347
  H 1.869765 1.590046 0.665182
  H 2.968557 2.823837 0.292686
  H 5.620421 -1.251398 1.024243
  H 5.270406 -2.250130 -0.287506
  H 5.913091 -0.730380 -0.564089
 16
 47.179162
  C 0.445607 -0.465234 -0.123420
  H 1.471122 -0.060980 0.011281
  H 0.338429 -0.690912 -1.185779
  H 0.351692 -1.372731 0.473077
  H -0.285429 0.282280 0.195622
  Pt 3.462229 -0.393398 0.034975
  N 2.436954 2.029975 -0.036764
  N 5.319247 -1.290334 0.047810
  Cl 3.619255 -0.203293 2.452656
  Cl 3.442870 -0.559225 -2.383283
  H 2.068577 2.097292 -0.973953
  H 1.866410 1.591320 0.666694
  H 2.970423 2.821275 0.291931
  H 5.622960 -1.253907 1.024148
  H 5.269153 -2.252132 -0.287702
  H 5.914642 -0.733731 -0.564246
 16
 46.593019
  C 0.442776 -0.466127 -0.123962
  H 1.465887 -0.060715 0.010734
  H 0.335781 -0.692556 -1.186151
  H 0.349318 -1.373668 0.472942
  H -0.289222 0.280525 0.194949
  Pt 3.467669 -0.384127 0.035049
  N 2.436269 2.028227 -0.035896
  N 5.320449 -1.293115 0.047880
  Cl 3.623759 -0.194853 2.452883
  Cl 3.449064 -0.551578 -2.383292
  H 2.066837 2.094710 -0.972968
  H 1.862240 1.593126 0.668229
  H 2.972972 2.817613 0.291388
  H 5.626272 -1.257803 1.023713
  H 5.267067 -2.254834 -0.287795
  H 5.917006 -0.738561 -0.564657
 16
 45.651977
  C 0.438325 -0.467501 -0.124837
  H 1.458546 -0.060389 0.009791
  H 0.331484 -0.695115 -1.186847
  H 0.345456 -1.374968 0.472534
  H -0.295236 0.277892 0.193939
  Pt 3.476485 -0.369342 0.035321
  N 2.434914 2.024763 -0.034556
  N 5.321995 -1.297491 0.048059
  Cl 3.631315 -0.180620 2.453301
  Cl 3.458863 -0.538887 -2.383154
  H 2.063989 2.089986 -0.971334
  H 1.856921 1.595406 0.670079
  H 2.976373 2.811631 0.291046
  H 5.630851 -1.264135 1.022937
  H 5.263313 -2.258863 -0.287853
  H 5.920547 -0.746103 -0.565379
 16
 43.582081
  C 0.429060 -0.470417 -0.126688
  H 1.444913 -0.060366 0.007623
  H 0.322268 -0.700172 -1.188441
  H 0.337006 -1.377852 0.471147
  H -0.307683 0.272371 0.192147
  Pt 3.495422 -0.337672 0.036294
  N 2.431980 2.016483 -0.032218
  N 5.324321 -1.306485 0.048584
  Cl 3.648336 -0.148567 2.454356
  Cl 3.479223 -0.510235 -2.382503
  H 2.058277 2.079211 -0.968411
  H 1.848634 1.598158 0.673380
  H 2.981939 2.798500 0.291036
  H 5.639073 -1.277811 1.021475
  H 5.254152 -2.266928 -0.287903
  H 5.927220 -0.761955 -0.566831
 16
 40.617301
  C 0.412966 -0.472190 -0.132714
  H 1.428534 -0.061130 0.003099
  H 0.305087 -0.701927 -1.194843
  H 0.320205 -1.381148 0.462921
  H -0.327605 0.265945 0.190143
  Pt 3.522256 -0.295683 0.043337
  N 2.430949 2.000230 -0.026490
  N 5.328497 -1.315436 0.047593
  Cl 3.675937 -0.101581 2.460699
  Cl 3.503141 -0.477747 -2.375350
  H 2.050587 2.058563 -0.960566
  H 1.844615 1.596936 0.675911
  H 2.988457 2.779937 0.290523
  H 5.651918 -1.293103 1.017377
  H 5.242628 -2.275315 -0.286928
  H 5.935970 -0.780088 -0.571666
 16
 37.088886
  C 0.397655 -0.477832 -0.135289
  H 1.410221 -0.066127 0.001873
  H 0.292614 -0.715400 -1.195610
  H 0.303007 -1.384308 0.465555
  H -0.348449 0.257834 0.179425
  Pt 3.548173 -0.250405 0.047553
  N 2.439248 1.985482 -0.025731
  N 5.328146 -1.321447 0.046529
  Cl 3.704569 -0.062149 2.464666
  Cl 3.523573 -0.428719 -2.371964
  H 2.052449 2.040471 -0.958899
  H 1.834887 1.589592 0.687220
  H 3.004371 2.762640 0.280892
  H 5.653181 -1.309545 1.016806
  H 5.225925 -2.279339 -0.290279
  H 5.944572 -0.794483 -0.569700
 16
 33.490647
  C 0.387312 -0.478008 -0.140908
  H 1.399878 -0.068526 -0.003790
  H 0.277073 -0.715139 -1.202530
  H 0.295515 -1.385331 0.457264
  H -0.363836 0.252040 0.179928
  Pt 3.573652 -0.205999 0.050779
  N 2.438907 1.954587 -0.014925
  N 5.324905 -1.326082 0.047222
  Cl 3.734058 -0.013048 2.467053
  Cl 3.541232 -0.391486 -2.368271
  H 2.048181 2.010124 -0.945561
  H 1.841920 1.586220 0.675806
  H 3.008621 2.736706 0.285159
  H 5.652739 -1.318568 1.014095
  H 5.204956 -2.282431 -0.285105
  H 5.949027 -0.808796 -0.573171
 16
 29.032779
  C 0.375051 -0.485365 -0.140553
  H 1.387450 -0.072819 -0.008856
  H 0.263701 -0.734289 -1.199865
  H 0.283579 -1.387166 0.466069
  H -0.382837 0.242634 0.169981
  Pt 3.598232 -0.156821 0.046253
  N 2.450768 1.930181 -0.011373
  N 5.316294 -1.325611 0.047920
  Cl 3.761126 0.024987 2.463212
  Cl 3.559917 -0.334487 -2.373180
  H 2.062007 1.992275 -0.943630
  H 1.839100 1.573870 0.676255
  H 3.024824 2.709398 0.286608
  H 5.644496 -1.325185 1.015537
  H 5.177470 -2.282073 -0.279676
  H 5.952965 -0.823266 -0.571659
