 16
 32.103759
  C 1.047693 -0.080591 0.339813
  H 2.364914 -0.459535 -1.547764
  H 0.556399 -0.038662 -0.638475
  H 0.762476 -1.018518 0.832288
  H 0.658746 0.740722 0.957511
  Pt 3.129766 0.060047 0.261404
  N 3.004335 2.141038 0.282278
  N 3.437886 -2.005604 0.164865
  Cl 2.106213 -0.874651 -2.876472
  Cl 5.610208 0.276763 0.643240
  H 3.606270 2.461170 1.044134
  H 3.386020 2.476332 -0.602809
  H 2.048055 2.471484 0.404644
  H 2.987868 -2.417596 -0.654295
  H 4.457658 -2.088630 0.099018
  H 3.110726 -2.459940 1.016622
 16
 31.846588
  C 1.046497 -0.082226 0.344809
  H 2.382590 -0.448945 -1.544519
  H 0.556758 -0.037067 -0.634099
  H 0.761277 -1.022104 0.833791
  H 0.658496 0.737643 0.964955
  Pt 3.126796 0.057953 0.261126
  N 3.001072 2.139016 0.278454
  N 3.435170 -2.007565 0.169305
  Cl 2.119461 -0.855818 -2.878046
  Cl 5.608625 0.270669 0.623172
  H 3.601678 2.461139 1.040261
  H 3.383884 2.472580 -0.606712
  H 2.044565 2.469536 0.398834
  H 2.987369 -2.419303 -0.651255
  H 4.455171 -2.089748 0.105908
  H 3.105826 -2.461931 1.020018
 16
 31.604730
  C 1.043992 -0.084503 0.349699
  H 2.399826 -0.438218 -1.540793
  H 0.556132 -0.036281 -0.629861
  H 0.758712 -1.026149 0.835119
  H 0.655995 0.733550 0.972281
  Pt 3.124470 0.056075 0.260759
  N 2.998776 2.137240 0.274563
  N 3.432598 -2.009465 0.173605
  Cl 2.132685 -0.836867 -2.879050
  Cl 5.608267 0.265952 0.603372
  H 3.598321 2.461254 1.036337
  H 3.382628 2.469063 -0.610921
  H 2.042126 2.467989 0.393148
  H 2.986726 -2.420893 -0.648192
  H 4.452908 -2.091072 0.112445
  H 3.101073 -2.463844 1.023491
 16
 31.376609
  C 1.042520 -0.087127 0.354473
  H 2.416532 -0.427645 -1.537185
  H 0.556111 -0.036041 -0.625675
  H 0.757571 -1.030634 0.836463
  H 0.654698 0.728927 0.979647
  Pt 3.121804 0.054333 0.260358
  N 2.996510 2.135636 0.270629
  N 3.429355 -2.011255 0.177839
  Cl 2.145545 -0.818118 -2.880415
  Cl 5.607592 0.262312 0.584589
  H 3.594971 2.461382 1.032397
  H 3.381482 2.465685 -0.615041
  H 2.039763 2.466750 0.387346
  H 2.985418 -2.422324 -0.645200
  H 4.449853 -2.092595 0.118952
  H 3.095511 -2.465457 1.026827
 16
 31.161647
  C 1.040455 -0.089913 0.359146
  H 2.432740 -0.417243 -1.533825
  H 0.555487 -0.036068 -0.621505
  H 0.755867 -1.035194 0.837824
  H 0.652733 0.724177 0.986933
  Pt 3.119522 0.052682 0.259950
  N 2.994664 2.134085 0.266730
  N 3.426336 -2.013004 0.182005
  Cl 2.158230 -0.799480 -2.881798
  Cl 5.607179 0.259219 0.566364
  H 3.592140 2.461548 1.028447
  H 3.380677 2.462396 -0.619207
  H 2.037813 2.465540 0.381691
  H 2.984155 -2.423740 -0.642160
  H 4.447038 -2.094229 0.125218
  H 3.090199 -2.466946 1.030189
 16
 30.982557
  C 1.039109 -0.092459 0.363179
  H 2.446610 -0.408274 -1.531155
  H 0.555154 -0.036277 -0.617833
  H 0.755023 -1.039307 0.839059
  H 0.651654 0.719878 0.993318
  Pt 3.117418 0.051274 0.259588
  N 2.993033 2.132783 0.263313
  N 3.423457 -2.014487 0.185635
  Cl 2.169145 -0.783249 -2.883309
  Cl 5.606609 0.256920 0.551006
  H 3.589644 2.461703 1.024986
  H 3.379958 2.459576 -0.622800
  H 2.036096 2.464556 0.376721
  H 2.982784 -2.424918 -0.639478
  H 4.444287 -2.095791 0.130656
  H 3.085255 -2.468098 1.033118
 16
 30.792530
  C 1.037384 -0.095382 0.367627
  H 2.461800 -0.398394 -1.528411
  H 0.554489 -0.036634 -0.613723
  H 0.753887 -1.043924 0.840455
  H 0.650256 0.715025 1.000409
  Pt 3.115271 0.049738 0.259191
  N 2.991396 2.131359 0.259525
  N 3.420350 -2.016113 0.189671
  Cl 2.181226 -0.765174 -2.885116
  Cl 5.606028 0.254649 0.534214
  H 3.587100 2.461908 1.021123
  H 3.379293 2.456481 -0.626824
  H 2.034362 2.463452 0.371263
  H 2.981238 -2.426227 -0.636436
  H 4.441310 -2.097631 0.136607
  H 3.079845 -2.469302 1.036427
 16
 30.616158
  C 1.035931 -0.098394 0.371936
  H 2.476409 -0.388839 -1.526106
  H 0.553873 -0.037195 -0.609665
  H 0.753169 -1.048622 0.841855
  H 0.649216 0.710099 1.007357
  Pt 3.113183 0.048299 0.258821
  N 2.989872 2.130024 0.255839
  N 3.417141 -2.017667 0.193655
  Cl 2.192929 -0.747488 -2.887182
  Cl 5.605330 0.252897 0.518177
  H 3.584706 2.462138 1.017352
  H 3.378715 2.453514 -0.630734
  H 2.032763 2.462446 0.365950
  H 2.979481 -2.427451 -0.633376
  H 4.438189 -2.099592 0.142419
  H 3.074328 -2.470339 1.039705
 16
 30.452329
  C 1.034555 -0.101821 0.376109
  H 2.490363 -0.379291 -1.524197
  H 0.553115 -0.038389 -0.605627
  H 0.752906 -1.053762 0.843210
  H 0.648019 0.704631 1.014147
  Pt 3.111279 0.047021 0.258475
  N 2.988754 2.128881 0.252208
  N 3.413687 -2.019102 0.197662
  Cl 2.204243 -0.730030 -2.889505
  Cl 5.604734 0.252172 0.502768
  H 3.582782 2.462436 1.013647
  H 3.378570 2.450694 -0.634576
  H 2.031624 2.461774 0.360707
  H 2.977349 -2.428482 -0.630270
  H 4.434790 -2.101754 0.148224
  H 3.068464 -2.471148 1.043021
 16
 30.303546
  C 1.033264 -0.104932 0.380134
  H 2.503611 -0.370313 -1.522910
  H 0.552318 -0.039295 -0.601697
  H 0.752580 -1.058472 0.844602
  H 0.647174 0.699674 1.020727
  Pt 3.109512 0.045750 0.258183
  N 2.987551 2.127702 0.248768
  N 3.410548 -2.020507 0.201547
  Cl 2.215122 -0.713242 -2.892015
  Cl 5.604027 0.251241 0.488163
  H 3.580794 2.462692 1.010112
  H 3.378248 2.447959 -0.638219
  H 2.030347 2.460937 0.355747
  H 2.975455 -2.429524 -0.627190
  H 4.431687 -2.103934 0.153782
  H 3.062996 -2.471906 1.046267
 16
 30.169443
  C 1.032085 -0.107828 0.383986
  H 2.516120 -0.361907 -1.522162
  H 0.551530 -0.040039 -0.597881
  H 0.752271 -1.062858 0.845968
  H 0.646542 0.695038 1.027048
  Pt 3.107895 0.044510 0.257960
  N 2.986343 2.126563 0.245548
  N 3.407634 -2.021839 0.205324
  Cl 2.225500 -0.697237 -2.894772
  Cl 5.603292 0.250268 0.474313
  H 3.578838 2.462954 1.006787
  H 3.377834 2.445361 -0.641636
  H 2.029056 2.460055 0.351105
  H 2.973683 -2.430534 -0.624155
  H 4.428785 -2.106099 0.159119
  H 3.057824 -2.472579 1.049449
 16
 30.049215
  C 1.031012 -0.110519 0.387665
  H 2.527887 -0.354050 -1.521914
  H 0.550754 -0.040634 -0.594190
  H 0.751981 -1.066937 0.847294
  H 0.646054 0.690696 1.033098
  Pt 3.106413 0.043324 0.257800
  N 2.985147 2.125465 0.242544
  N 3.404923 -2.023115 0.208977
  Cl 2.235383 -0.682023 -2.897688
  Cl 5.602604 0.249307 0.461205
  H 3.576924 2.463210 1.003665
  H 3.377353 2.442900 -0.644838
  H 2.027767 2.459150 0.346777
  H 2.972031 -2.431509 -0.621170
  H 4.426067 -2.108249 0.164234
  H 3.052934 -2.473186 1.052545
 16
 29.942772
  C 1.030062 -0.111977 0.391247
  H 2.538889 -0.347232 -1.522076
  H 0.550030 -0.039664 -0.590548
  H 0.750957 -1.069474 0.848652
  H 0.646307 0.687973 1.038942
  Pt 3.105085 0.041445 0.257645
  N 2.983675 2.123656 0.239858
  N 3.402757 -2.025019 0.212284
  Cl 2.245012 -0.668027 -2.900740
  Cl 5.601559 0.250702 0.448961
  H 3.574731 2.462741 1.000890
  H 3.376463 2.439946 -0.647697
  H 2.026150 2.457322 0.342895
  H 2.970904 -2.433138 -0.618501
  H 4.423903 -2.110889 0.168901
  H 3.048749 -2.474535 1.055290
 16
 30.148170
  C 1.029660 -0.151519 0.391395
  H 2.547279 -0.323463 -1.523548
  H 0.548724 -0.092309 -0.591064
  H 0.778757 -1.118093 0.847092
  H 0.624592 0.637005 1.040608
  Pt 3.102852 0.067611 0.259140
  N 2.993312 2.150411 0.233555
  N 3.387857 -2.000845 0.222388
  Cl 2.242532 -0.642613 -2.902399
  Cl 5.615049 0.165006 0.436354
  H 3.585359 2.489153 0.994036
  H 3.389013 2.461146 -0.654794
  H 2.037485 2.489881 0.334098
  H 2.955146 -2.408709 -0.607953
  H 4.408563 -2.093401 0.181030
  H 3.029054 -2.445431 1.066062
 16
 30.064712
  C 1.030302 -0.148997 0.392185
  H 2.552761 -0.322527 -1.524289
  H 0.550309 -0.088533 -0.590501
  H 0.778922 -1.115464 0.847786
  H 0.625824 0.639664 1.041249
  Pt 3.102755 0.064552 0.259633
  N 2.990614 2.148510 0.233885
  N 3.387565 -2.002785 0.224108
  Cl 2.247351 -0.637995 -2.903768
  Cl 5.614640 0.164252 0.426998
  H 3.581810 2.488832 0.994232
  H 3.385634 2.459494 -0.654395
  H 2.034554 2.487170 0.334333
  H 2.955183 -2.410771 -0.606235
  H 4.408676 -2.094329 0.183017
  H 3.028334 -2.447242 1.067764
