 14
 303.166607
  O -2.887968 0.221542 0.495598
  H -1.856186 0.257321 0.407370
  H -3.302859 0.794213 -0.274312
  Pt 6.528080 0.832973 -0.532804
  N 5.945134 3.002241 -0.397537
  N 7.242405 -1.011166 -0.442400
  Cl -3.781508 -0.322887 1.454864
  Cl 8.620081 1.231852 -1.039997
  H 6.772987 3.559623 -0.713101
  H 5.163085 3.198624 -0.988691
  H 5.698753 3.249535 0.605099
  H 6.529319 -1.703801 -0.337040
  H 7.745703 -1.113790 -1.295373
  H 7.911214 -1.009142 0.351771
 14
 280.130131
  O -2.890636 0.190497 0.463377
  H -1.853383 0.231033 0.378211
  H -3.325978 0.763688 -0.295586
  Pt 6.528178 0.837447 -0.531176
  N 5.952225 3.006819 -0.388107
  N 7.243489 -1.024463 -0.444928
  Cl -3.792800 -0.377203 1.458077
  Cl 8.617576 1.249766 -1.036619
  H 6.774743 3.579762 -0.707118
  H 5.165328 3.216145 -0.982631
  H 5.717533 3.249098 0.604347
  H 6.534680 -1.719315 -0.338752
  H 7.750482 -1.134171 -1.303149
  H 7.908451 -1.019092 0.336615
 14
 268.770750
  O -2.886583 0.196185 0.455586
  H -1.846364 0.241634 0.367644
  H -3.314549 0.762863 -0.296096
  Pt 6.524714 0.840456 -0.527774
  N 5.946627 3.011341 -0.388032
  N 7.238087 -1.029388 -0.445411
  Cl -3.781643 -0.388265 1.468645
  Cl 8.636613 1.264870 -1.044337
  H 6.762471 3.584377 -0.706867
  H 5.166960 3.213367 -0.972158
  H 5.708620 3.257814 0.604513
  H 6.527844 -1.733903 -0.333690
  H 7.737649 -1.137352 -1.296954
  H 7.909834 -1.024265 0.337374
 14
 264.855715
  O -2.886981 0.200385 0.462407
  H -1.842174 0.250853 0.354975
  H -3.311568 0.770312 -0.291931
  Pt 6.520192 0.838774 -0.518719
  N 5.948991 3.011041 -0.390005
  N 7.241708 -1.033583 -0.446648
  Cl -3.796208 -0.387910 1.472893
  Cl 8.633011 1.267383 -1.038832
  H 6.772298 3.583427 -0.714401
  H 5.172922 3.215116 -0.969649
  H 5.702630 3.262876 0.595256
  H 6.517361 -1.737323 -0.338974
  H 7.742442 -1.137949 -1.288462
  H 7.920882 -1.030013 0.336861
