 16
 113.047882
  C 2.332553 0.297790 0.059060
  H 2.150019 0.357738 -1.354748
  H 1.389378 -0.316606 0.164120
  H 2.585684 -0.497372 1.104446
  H 2.033735 1.280845 0.443856
  Pt 4.166709 -0.098294 0.837263
  N 2.156077 0.490243 -2.761250
  N 6.134513 -0.433060 1.430775
  Cl 4.291764 -2.143174 -0.467077
  Cl 4.235051 1.924455 2.165270
  H 2.408707 1.452178 -2.566460
  H 2.062490 0.326729 -3.761363
  H 2.730129 -0.162300 -2.370823
  H 6.350385 -1.410678 1.251836
  H 6.773258 0.173676 0.916794
  H 6.168289 -0.205206 2.422842
 16
 105.461930
  C 2.313606 0.300708 0.058481
  H 2.146711 0.356340 -1.315873
  H 1.374826 -0.319228 0.161430
  H 2.569476 -0.493797 1.106781
  H 2.012079 1.281631 0.442313
  Pt 4.167860 -0.096208 0.833560
  N 2.166812 0.491668 -2.759744
  N 6.138221 -0.434212 1.421779
  Cl 4.295620 -2.143070 -0.465551
  Cl 4.234033 1.932260 2.157819
  H 2.416891 1.454545 -2.563623
  H 2.083133 0.328412 -3.762236
  H 2.751047 -0.173034 -2.359232
  H 6.349311 -1.413478 1.238120
  H 6.773834 0.173259 0.905822
  H 6.175351 -0.208466 2.414716
 16
 98.053526
  C 2.293328 0.306841 0.051580
  H 2.140842 0.356074 -1.274687
  H 1.361484 -0.313715 0.155263
  H 2.548545 -0.479266 1.088201
  H 1.982541 1.290084 0.435458
  Pt 4.166977 -0.097922 0.829211
  N 2.171517 0.489093 -2.751405
  N 6.146811 -0.435137 1.419064
  Cl 4.302879 -2.143603 -0.477241
  Cl 4.240543 1.928294 2.163614
  H 2.419656 1.454408 -2.563588
  H 2.098770 0.321027 -3.759454
  H 2.770202 -0.184034 -2.345229
  H 6.361131 -1.414083 1.232278
  H 6.778835 0.169533 0.900088
  H 6.184785 -0.210072 2.411419
 16
 90.845920
  C 2.271601 0.311544 0.045702
  H 2.135118 0.355261 -1.226478
  H 1.340518 -0.313433 0.149419
  H 2.529524 -0.463428 1.061404
  H 1.950741 1.292946 0.430269
  Pt 4.171439 -0.093123 0.825418
  N 2.180784 0.488086 -2.742039
  N 6.160300 -0.437387 1.414628
  Cl 4.300125 -2.142981 -0.490436
  Cl 4.242446 1.928893 2.160741
  H 2.424366 1.456206 -2.559658
  H 2.118584 0.314958 -3.754792
  H 2.790830 -0.196652 -2.329025
  H 6.371229 -1.421014 1.230835
  H 6.784519 0.169962 0.893474
  H 6.196824 -0.211782 2.405139
 16
 84.459631
  C 2.254742 0.317200 0.040240
  H 2.133452 0.356873 -1.172747
  H 1.322485 -0.307640 0.146838
  H 2.510836 -0.444633 1.037257
  H 1.931115 1.297792 0.431804
  Pt 4.175744 -0.099896 0.817497
  N 2.191113 0.489217 -2.732416
  N 6.165105 -0.439765 1.404884
  Cl 4.314500 -2.159607 -0.490831
  Cl 4.218118 1.930702 2.142168
  H 2.433631 1.454640 -2.551827
  H 2.141890 0.314016 -3.739760
  H 2.814818 -0.202534 -2.309064
  H 6.375213 -1.421566 1.217311
  H 6.784646 0.165234 0.877372
  H 6.201503 -0.212177 2.395863
 16
 79.001449
  C 2.231750 0.323855 0.039563
  H 2.129950 0.358451 -1.115145
  H 1.295738 -0.304323 0.150274
  H 2.488744 -0.424130 1.009731
  H 1.908121 1.296057 0.441095
  Pt 4.179712 -0.101637 0.810209
  N 2.207757 0.488505 -2.726680
  N 6.173018 -0.443036 1.394960
  Cl 4.330351 -2.169399 -0.492639
  Cl 4.203027 1.937384 2.126235
  H 2.448292 1.451054 -2.545293
  H 2.170675 0.309775 -3.730435
  H 2.840063 -0.207847 -2.291363
  H 6.374742 -1.426515 1.200867
  H 6.777322 0.166424 0.858518
  H 6.209687 -0.216569 2.384704
 16
 75.844500
  C 2.210686 0.328463 0.046182
  H 2.123964 0.359066 -1.081735
  H 1.274405 -0.298002 0.157438
  H 2.467993 -0.408809 0.991569
  H 1.891340 1.295344 0.458284
  Pt 4.183283 -0.106362 0.807831
  N 2.219987 0.485199 -2.728646
  N 6.178983 -0.443643 1.389210
  Cl 4.338871 -2.171368 -0.493973
  Cl 4.200173 1.931680 2.124015
  H 2.460878 1.447564 -2.546678
  H 2.195861 0.301714 -3.730740
  H 2.854672 -0.209545 -2.288867
  H 6.373870 -1.425024 1.189402
  H 6.774269 0.168646 0.842396
  H 6.219717 -0.216845 2.378916
 16
 71.605348
  C 2.177224 0.335352 0.066940
  H 2.112049 0.358296 -1.033515
  H 1.240961 -0.291097 0.179979
  H 2.440741 -0.388299 0.978676
  H 1.859490 1.291769 0.496893
  Pt 4.191342 -0.108520 0.809381
  N 2.242055 0.477896 -2.744655
  N 6.185200 -0.443592 1.380403
  Cl 4.349220 -2.164356 -0.496756
  Cl 4.206424 1.923440 2.129011
  H 2.486384 1.440861 -2.560590
  H 2.235116 0.286648 -3.747143
  H 2.874452 -0.210062 -2.302328
  H 6.368231 -1.424705 1.168628
  H 6.765315 0.175620 0.818133
  H 6.234819 -0.220818 2.371567
 16
 67.670620
  C 2.141894 0.341942 0.097653
  H 2.096499 0.358501 -0.994808
  H 1.203966 -0.278038 0.213058
  H 2.424042 -0.382106 0.990102
  H 1.827095 1.290423 0.545378
  Pt 4.196097 -0.112132 0.813091
  N 2.261012 0.469377 -2.780039
  N 6.186489 -0.438568 1.371564
  Cl 4.346393 -2.154155 -0.504657
  Cl 4.218768 1.906217 2.145662
  H 2.508965 1.433159 -2.593939
  H 2.273882 0.272834 -3.782001
  H 2.888423 -0.208937 -2.334900
  H 6.368979 -1.419770 1.157030
  H 6.770185 0.180739 0.806424
  H 6.256488 -0.220292 2.365045
 16
 67.659613
  C 2.108805 0.366607 0.110052
  H 2.156851 0.290765 -0.980975
  H 1.160818 -0.239134 0.205390
  H 2.375494 -0.355341 0.998667
  H 1.806078 1.326400 0.536656
  Pt 4.197419 -0.127205 0.820241
  N 2.254243 0.471750 -2.786285
  N 6.194148 -0.437929 1.357371
  Cl 4.363779 -2.157382 -0.508841
  Cl 4.204736 1.881201 2.166187
  H 2.515894 1.431074 -2.584201
  H 2.258033 0.296807 -3.793095
  H 2.931073 -0.261081 -2.321015
  H 6.399408 -1.414074 1.137715
  H 6.772893 0.196976 0.801789
  H 6.269171 -0.231890 2.354921
 16
 64.053241
  C 2.088962 0.365880 0.138029
  H 2.147641 0.302587 -0.950666
  H 1.139610 -0.235956 0.214326
  H 2.359228 -0.365982 1.007616
  H 1.785411 1.321311 0.573346
  Pt 4.199759 -0.127443 0.828260
  N 2.268397 0.463583 -2.816847
  N 6.197735 -0.431072 1.353656
  Cl 4.344224 -2.149926 -0.512089
  Cl 4.233291 1.869936 2.183323
  H 2.529070 1.419794 -2.618372
  H 2.279336 0.282031 -3.824588
  H 2.925279 -0.242061 -2.354100
  H 6.408549 -1.407420 1.137731
  H 6.781231 0.201035 0.804568
  H 6.281301 -0.227940 2.350424
 16
 62.162512
  C 2.085763 0.362525 0.156432
  H 2.148418 0.294643 -0.931389
  H 1.133394 -0.236147 0.227726
  H 2.372230 -0.368159 1.020992
  H 1.784543 1.323402 0.584169
  Pt 4.196729 -0.123200 0.832965
  N 2.275768 0.456287 -2.834833
  N 6.190239 -0.428781 1.348306
  Cl 4.330927 -2.140522 -0.519011
  Cl 4.241167 1.868037 2.198410
  H 2.537194 1.412709 -2.637251
  H 2.290752 0.283035 -3.841926
  H 2.923941 -0.237984 -2.371946
  H 6.405733 -1.404751 1.131325
  H 6.776710 0.203806 0.806090
  H 6.275605 -0.226130 2.344577
 16
 61.006527
  C 2.081812 0.361308 0.160121
  H 2.147342 0.294672 -0.930231
  H 1.130243 -0.233309 0.232980
  H 2.380141 -0.371122 1.019562
  H 1.789931 1.320919 0.585088
  Pt 4.195164 -0.124239 0.833894
  N 2.279320 0.451843 -2.836020
  N 6.187995 -0.427749 1.347193
  Cl 4.327978 -2.140154 -0.519486
  Cl 4.240928 1.866780 2.201416
  H 2.542721 1.413088 -2.638135
  H 2.295992 0.277842 -3.838943
  H 2.916369 -0.229069 -2.381326
  H 6.404139 -1.402710 1.130904
  H 6.775039 0.205288 0.804338
  H 6.273999 -0.224612 2.343279
 16
 60.185741
  C 2.076293 0.360479 0.164408
  H 2.145580 0.294786 -0.925432
  H 1.124690 -0.230280 0.239082
  H 2.388790 -0.374350 1.017512
  H 1.793852 1.323497 0.588360
  Pt 4.193499 -0.125048 0.834563
  N 2.283211 0.449960 -2.837666
  N 6.185457 -0.426286 1.344899
  Cl 4.325133 -2.138432 -0.521907
  Cl 4.240527 1.864657 2.205827
  H 2.545804 1.408394 -2.640370
  H 2.302120 0.274928 -3.842167
  H 2.916738 -0.225553 -2.384319
  H 6.402778 -1.401408 1.128307
  H 6.772257 0.206817 0.802513
  H 6.272395 -0.223338 2.341026
 16
 59.208257
  C 2.067919 0.359854 0.169208
  H 2.147629 0.292987 -0.918244
  H 1.115718 -0.225231 0.244744
  H 2.397057 -0.377621 1.014792
  H 1.797747 1.327540 0.591006
  Pt 4.191455 -0.126464 0.835992
  N 2.287542 0.447699 -2.839140
  N 6.183021 -0.424555 1.341523
  Cl 4.322178 -2.136636 -0.524305
  Cl 4.239512 1.861654 2.211944
  H 2.549223 1.402564 -2.642284
  H 2.309073 0.271601 -3.845637
  H 2.918476 -0.221655 -2.386608
  H 6.402096 -1.399733 1.124207
  H 6.769099 0.209003 0.799680
  H 6.271375 -0.222201 2.337758
