 14
 117.347788
  O 0.908494 -2.032481 0.595815
  H 0.101564 -1.476164 0.624312
  H 0.623594 -2.960920 0.572428
  Pt 5.486972 0.057089 0.073321
  N 6.355488 5.045120 -0.561597
  N 3.942617 -1.311927 0.063483
  Cl 1.447266 -1.728152 -1.662866
  Cl 7.646399 0.767416 0.633562
  H 7.311404 4.826997 -0.394579
  H 6.001288 5.111950 -1.489372
  H 5.762824 5.288667 0.202600
  H 3.018437 -0.961111 -0.281438
  H 4.234326 -2.067540 -0.560379
  H 3.851994 -1.683419 1.011196
 14
 115.737036
  O 0.919047 -2.012789 0.603428
  H 0.126681 -1.459133 0.636724
  H 0.634179 -2.934421 0.580086
  Pt 5.488466 0.050322 0.067235
  N 6.347425 5.025495 -0.560358
  N 3.954766 -1.331076 0.059703
  Cl 1.431315 -1.715655 -1.711734
  Cl 7.655571 0.743003 0.635021
  H 7.307820 4.807877 -0.395861
  H 5.988053 5.092015 -1.494663
  H 5.755165 5.275499 0.206736
  H 3.028230 -0.987996 -0.281028
  H 4.241310 -2.085543 -0.566730
  H 3.864138 -1.711224 1.004979
 14
 114.483113
  O 0.941388 -1.993934 0.615773
  H 0.145466 -1.440374 0.655936
  H 0.647420 -2.910422 0.590718
  Pt 5.482934 0.042310 0.061415
  N 6.341930 5.018910 -0.558918
  N 3.957315 -1.348609 0.052851
  Cl 1.430792 -1.718034 -1.749418
  Cl 7.651237 0.731178 0.637749
  H 7.309330 4.804555 -0.392291
  H 5.982106 5.074621 -1.491303
  H 5.749147 5.266150 0.206039
  H 3.032941 -1.006837 -0.294786
  H 4.245177 -2.106301 -0.570190
  H 3.854809 -1.729627 0.993969
 14
 113.458216
  O 0.963980 -1.974066 0.628522
  H 0.170460 -1.419821 0.669072
  H 0.657880 -2.891287 0.601912
  Pt 5.478365 0.035854 0.054601
  N 6.339939 5.015293 -0.556064
  N 3.957235 -1.365264 0.045397
  Cl 1.430499 -1.718250 -1.781697
  Cl 7.644133 0.722230 0.640976
  H 7.304989 4.798361 -0.387516
  H 5.979494 5.056700 -1.490675
  H 5.741503 5.253936 0.205722
  H 3.032997 -1.025381 -0.305913
  H 4.247716 -2.125056 -0.574686
  H 3.850256 -1.747178 0.984388
 14
 112.658489
  O 0.985842 -1.957982 0.639194
  H 0.192730 -1.402957 0.682069
  H 0.674355 -2.873942 0.609916
  Pt 5.470890 0.031560 0.049078
  N 6.337785 5.013995 -0.554558
  N 3.954322 -1.378961 0.039888
  Cl 1.433063 -1.716311 -1.809242
  Cl 7.636666 0.716820 0.644504
  H 7.304046 4.795194 -0.384132
  H 5.977349 5.039849 -1.488793
  H 5.735813 5.247611 0.205650
  H 3.029610 -1.042210 -0.316118
  H 4.247102 -2.141125 -0.577166
  H 3.839223 -1.763337 0.977506
 14
 111.472187
  O 1.020014 -1.929873 0.657390
  H 0.230962 -1.369423 0.702787
  H 0.701512 -2.844013 0.622474
  Pt 5.459622 0.019707 0.038763
  N 6.334557 5.011305 -0.552539
  N 3.950730 -1.402871 0.029396
  Cl 1.440334 -1.716610 -1.852560
  Cl 7.624747 0.702596 0.648993
  H 7.298010 4.787522 -0.377423
  H 5.973786 5.009772 -1.485950
  H 5.725645 5.234445 0.206399
  H 3.025155 -1.071545 -0.332137
  H 4.247094 -2.167012 -0.583003
  H 3.825237 -1.792041 0.964526
 14
 110.303257
  O 1.055030 -1.903639 0.677912
  H 0.278441 -1.332253 0.724055
  H 0.733798 -2.816133 0.635375
  Pt 5.445764 0.010658 0.029064
  N 6.332443 5.009424 -0.549732
  N 3.943158 -1.420830 0.019149
  Cl 1.454854 -1.722118 -1.895669
  Cl 7.605555 0.693989 0.653512
  H 7.290090 4.776998 -0.368193
  H 5.970823 4.976534 -1.482441
  H 5.714922 5.219487 0.207573
  H 3.015463 -1.096970 -0.349479
  H 4.241794 -2.185333 -0.589832
  H 3.805853 -1.814796 0.952698
 14
 109.110786
  O 1.091675 -1.878999 0.700488
  H 0.325783 -1.291333 0.747558
  H 0.765372 -2.791428 0.650612
  Pt 5.426601 0.003491 0.018669
  N 6.331117 5.008512 -0.546678
  N 3.935697 -1.435665 0.007988
  Cl 1.472114 -1.731102 -1.938042
  Cl 7.575558 0.691815 0.660352
  H 7.283156 4.766166 -0.357268
  H 5.969682 4.942022 -1.477631
  H 5.703668 5.203721 0.208863
  H 3.005665 -1.120097 -0.368536
  H 4.239212 -2.199641 -0.598640
  H 3.785734 -1.830734 0.939960
 14
 107.970491
  O 1.134291 -1.854084 0.723143
  H 0.377837 -1.247550 0.769676
  H 0.798483 -2.766660 0.664368
  Pt 5.402548 -0.002530 0.008002
  N 6.328424 5.005705 -0.542301
  N 3.924588 -1.445484 -0.003111
  Cl 1.496972 -1.746867 -1.975171
  Cl 7.537421 0.695240 0.664534
  H 7.274203 4.747441 -0.344637
  H 5.968431 4.907976 -1.470080
  H 5.691669 5.183635 0.210128
  H 2.995454 -1.136279 -0.387292
  H 4.233353 -2.210062 -0.608263
  H 3.764321 -1.836689 0.927734
 14
 107.022296
  O 1.179093 -1.827501 0.743873
  H 0.433265 -1.208104 0.788091
  H 0.832646 -2.735067 0.675127
  Pt 5.380100 -0.006938 -0.003134
  N 6.322360 4.995560 -0.536917
  N 3.910975 -1.452664 -0.015071
  Cl 1.529454 -1.761290 -1.999711
  Cl 7.502046 0.704040 0.666976
  H 7.263485 4.721235 -0.330974
  H 5.964538 4.870898 -1.462082
  H 5.677581 5.157467 0.211743
  H 2.984314 -1.147820 -0.407983
  H 4.224474 -2.218681 -0.618005
  H 3.740723 -1.840399 0.914838
 14
 106.202417
  O 1.218878 -1.801324 0.763850
  H 0.481876 -1.171471 0.806738
  H 0.862217 -2.704037 0.685009
  Pt 5.359586 -0.010924 -0.015578
  N 6.316329 4.982465 -0.531379
  N 3.901074 -1.459237 -0.027915
  Cl 1.558596 -1.775271 -2.017327
  Cl 7.468046 0.716886 0.670903
  H 7.252838 4.696254 -0.316263
  H 5.962193 4.835650 -1.455745
  H 5.662930 5.131807 0.213683
  H 2.976144 -1.158022 -0.431352
  H 4.220248 -2.226835 -0.626827
  H 3.719572 -1.844058 0.901087
 14
 105.482365
  O 1.246386 -1.777538 0.785107
  H 0.517245 -1.138472 0.822216
  H 0.880453 -2.675466 0.699380
  Pt 5.343155 -0.014651 -0.025126
  N 6.312661 4.973880 -0.525898
  N 3.896419 -1.466035 -0.043673
  Cl 1.582179 -1.798251 -2.027173
  Cl 7.436160 0.734826 0.676957
  H 7.243698 4.676033 -0.302263
  H 5.962784 4.808938 -1.449200
  H 5.651681 5.111342 0.215414
  H 2.973529 -1.167274 -0.455787
  H 4.220989 -2.233655 -0.639339
  H 3.704196 -1.849256 0.883777
 14
 104.845165
  O 1.270118 -1.753779 0.805538
  H 0.546561 -1.108086 0.836263
  H 0.897181 -2.648247 0.713899
  Pt 5.329436 -0.018047 -0.033290
  N 6.308961 4.964584 -0.520793
  N 3.893799 -1.474409 -0.059690
  Cl 1.601358 -1.818221 -2.033581
  Cl 7.408185 0.752885 0.684930
  H 7.236350 4.658770 -0.289623
  H 5.962845 4.784553 -1.443646
  H 5.641526 5.092751 0.217445
  H 2.972551 -1.178215 -0.481787
  H 4.224767 -2.242639 -0.651419
  H 3.689565 -1.856366 0.866386
 14
 104.405547
  O 1.284597 -1.736901 0.820232
  H 0.564904 -1.087093 0.845982
  H 0.906950 -2.629042 0.724778
  Pt 5.320526 -0.020656 -0.038659
  N 6.306441 4.957855 -0.517205
  N 3.893482 -1.481127 -0.071703
  Cl 1.613356 -1.832039 -2.036280
  Cl 7.388971 0.765859 0.691301
  H 7.230678 4.646308 -0.280615
  H 5.963345 4.768543 -1.439709
  H 5.634566 5.079880 0.218443
  H 2.974026 -1.186515 -0.500969
  H 4.229417 -2.249683 -0.660424
  H 3.680755 -1.861540 0.853247
 14
 103.765128
  O 1.305392 -1.711992 0.842315
  H 0.589913 -1.056854 0.860860
  H 0.922325 -2.600817 0.741088
  Pt 5.307303 -0.023662 -0.046294
  N 6.302801 4.947178 -0.511835
  N 3.893384 -1.490746 -0.090050
  Cl 1.629624 -1.853120 -2.038147
  Cl 7.359262 0.787261 0.701594
  H 7.223492 4.629170 -0.267086
  H 5.964623 4.745634 -1.433893
  H 5.624384 5.061567 0.220032
  H 2.976521 -1.198438 -0.531998
  H 4.237548 -2.260132 -0.673057
  H 3.666538 -1.868341 0.832891
