 16
 47.138012
  C 1.473375 -0.420679 0.092407
  H 2.386854 0.187728 -0.283592
  H 0.876033 -0.464266 -0.819634
  H 1.552630 -1.427444 0.506324
  H 1.057945 0.248892 0.843326
  Pt 3.857220 -0.846593 0.117921
  N 2.545347 2.654783 -0.118935
  N 5.806418 -1.456035 0.221510
  Cl 4.171328 0.215693 2.282121
  Cl 3.750293 -1.966788 -2.030789
  H 1.946488 3.032050 -0.837948
  H 2.098965 2.511820 0.777233
  H 3.469887 3.051299 -0.064106
  H 6.147753 -1.247533 1.163833
  H 5.855456 -2.451619 0.001888
  H 6.332075 -0.930362 -0.478590
 16
 47.058760
  C 1.471032 -0.418169 0.091896
  H 2.383323 0.191481 -0.280703
  H 0.872981 -0.462342 -0.819910
  H 1.553889 -1.426145 0.502637
  H 1.052791 0.246355 0.845835
  Pt 3.859327 -0.844036 0.117339
  N 2.545168 2.649446 -0.120474
  N 5.807712 -1.454796 0.222155
  Cl 4.174774 0.216229 2.282299
  Cl 3.750147 -1.962724 -2.032084
  H 1.945438 3.032397 -0.836188
  H 2.101901 2.509815 0.777618
  H 3.471721 3.041737 -0.068878
  H 6.148190 -1.247168 1.165112
  H 5.853986 -2.450602 0.003605
  H 6.335689 -0.930533 -0.477292
 16
 46.989892
  C 1.468876 -0.416782 0.091559
  H 2.379984 0.194731 -0.277899
  H 0.870685 -0.461210 -0.820151
  H 1.554762 -1.425929 0.499236
  H 1.048006 0.242958 0.848288
  Pt 3.861030 -0.841733 0.116804
  N 2.545120 2.645580 -0.121991
  N 5.808803 -1.453702 0.222621
  Cl 4.177500 0.216862 2.282466
  Cl 3.750139 -1.959220 -2.033057
  H 1.944846 3.033816 -0.834544
  H 2.104720 2.509216 0.778209
  H 3.473717 3.033756 -0.073540
  H 6.148332 -1.246772 1.166053
  H 5.852656 -2.449843 0.005136
  H 6.338893 -0.930784 -0.476223
 16
 46.928500
  C 1.466993 -0.415786 0.091335
  H 2.376886 0.197850 -0.275083
  H 0.868884 -0.460160 -0.820431
  H 1.555644 -1.426055 0.496000
  H 1.043643 0.239463 0.850628
  Pt 3.862341 -0.839469 0.116401
  N 2.545200 2.641976 -0.123389
  N 5.809603 -1.452560 0.222935
  Cl 4.179581 0.217655 2.282735
  Cl 3.750150 -1.955957 -2.033806
  H 1.944506 3.035259 -0.832931
  H 2.107625 2.508859 0.778680
  H 3.475809 3.025968 -0.077992
  H 6.148250 -1.246215 1.166799
  H 5.851375 -2.449002 0.006464
  H 6.341578 -0.930883 -0.475377
 16
 46.872575
  C 1.465313 -0.415229 0.091198
  H 2.373971 0.200744 -0.272281
  H 0.867429 -0.459292 -0.820742
  H 1.556511 -1.426587 0.492894
  H 1.039596 0.235760 0.852872
  Pt 3.863359 -0.837304 0.116052
  N 2.545413 2.638814 -0.124698
  N 5.810178 -1.451395 0.223176
  Cl 4.181187 0.218520 2.282982
  Cl 3.750149 -1.952997 -2.034439
  H 1.944395 3.036912 -0.831377
  H 2.110586 2.508914 0.779234
  H 3.478010 3.018586 -0.082328
  H 6.148002 -1.245500 1.167421
  H 5.850143 -2.448125 0.007688
  H 6.343828 -0.930876 -0.474683
 16
 46.820948
  C 1.463796 -0.414951 0.091119
  H 2.371236 0.203502 -0.269500
  H 0.866240 -0.458489 -0.821071
  H 1.557365 -1.427348 0.489880
  H 1.035811 0.231992 0.855015
  Pt 3.864120 -0.835203 0.115764
  N 2.545734 2.635868 -0.125914
  N 5.810569 -1.450186 0.223362
  Cl 4.182391 0.219456 2.283247
  Cl 3.750110 -1.950248 -2.034966
  H 1.944462 3.038580 -0.829851
  H 2.113620 2.509161 0.779798
  H 3.480287 3.011373 -0.086541
  H 6.147654 -1.244628 1.167942
  H 5.848963 -2.447186 0.008812
  H 6.345711 -0.930748 -0.474128
 16
 46.772709
  C 1.462411 -0.414902 0.091077
  H 2.368654 0.206122 -0.266746
  H 0.865267 -0.457736 -0.821419
  H 1.558192 -1.428313 0.486944
  H 1.032263 0.228180 0.857051
  Pt 3.864671 -0.833178 0.115521
  N 2.546147 2.633118 -0.127041
  N 5.810806 -1.448939 0.223513
  Cl 4.183273 0.220434 2.283508
  Cl 3.750034 -1.947699 -2.035401
  H 1.944674 3.040257 -0.828349
  H 2.116716 2.509582 0.780410
  H 3.482635 3.004319 -0.090658
  H 6.147232 -1.243612 1.168379
  H 5.847825 -2.446177 0.009866
  H 6.347268 -0.930511 -0.473686
 16
 46.727213
  C 1.461143 -0.415026 0.091059
  H 2.366217 0.208623 -0.264025
  H 0.864465 -0.457009 -0.821792
  H 1.558978 -1.429420 0.484074
  H 1.028914 0.224368 0.858993
  Pt 3.865048 -0.831222 0.115317
  N 2.546632 2.630510 -0.128087
  N 5.810918 -1.447653 0.223643
  Cl 4.183891 0.221443 2.283769
  Cl 3.749922 -1.945326 -2.035764
  H 1.945006 3.041899 -0.826859
  H 2.119863 2.510127 0.781068
  H 3.485034 2.997380 -0.094691
  H 6.146764 -1.242459 1.168741
  H 5.846734 -2.445117 0.010865
  H 6.348538 -0.930172 -0.473342
 16
 46.684078
  C 1.459971 -0.415268 0.091052
  H 2.363902 0.211018 -0.261339
  H 0.863809 -0.456280 -0.822186
  H 1.559717 -1.430609 0.481261
  H 1.025747 0.220594 0.860836
  Pt 3.865271 -0.829333 0.115146
  N 2.547178 2.627996 -0.129051
  N 5.810935 -1.446334 0.223755
  Cl 4.184282 0.222472 2.284035
  Cl 3.749772 -1.943104 -2.036059
  H 1.945425 3.043480 -0.825378
  H 2.123060 2.510746 0.781772
  H 3.487455 2.990500 -0.098650
  H 6.146276 -1.241184 1.169046
  H 5.845700 -2.444008 0.011816
  H 6.349566 -0.929742 -0.473086
 16
 46.642867
  C 1.458877 -0.415617 0.091052
  H 2.361706 0.213317 -0.258695
  H 0.863267 -0.455560 -0.822598
  H 1.560407 -1.431882 0.478502
  H 1.022731 0.216852 0.862588
  Pt 3.865375 -0.827511 0.115004
  N 2.547773 2.625577 -0.129943
  N 5.810864 -1.444981 0.223858
  Cl 4.184494 0.223508 2.284302
  Cl 3.749595 -1.941019 -2.036297
  H 1.945934 3.045000 -0.823899
  H 2.126297 2.511443 0.782520
  H 3.489898 2.983702 -0.102545
  H 6.145765 -1.239798 1.169292
  H 5.844709 -2.442857 0.012733
  H 6.350374 -0.929229 -0.472904
 16
 46.603404
  C 1.457844 -0.416035 0.091053
  H 2.359609 0.215524 -0.256092
  H 0.862822 -0.454830 -0.823029
  H 1.561043 -1.433196 0.475794
  H 1.019857 0.213173 0.864249
  Pt 3.865368 -0.825755 0.114887
  N 2.548413 2.623221 -0.130763
  N 5.810730 -1.443599 0.223952
  Cl 4.184547 0.224543 2.284565
  Cl 3.749385 -1.939059 -2.036487
  H 1.946505 3.046450 -0.822423
  H 2.129573 2.512185 0.783315
  H 3.492341 2.976946 -0.106383
  H 6.145258 -1.238312 1.169502
  H 5.843772 -2.441668 0.013618
  H 6.351001 -0.928643 -0.472788
 16
 46.565436
  C 1.456873 -0.416500 0.091050
  H 2.357608 0.217650 -0.253532
  H 0.862455 -0.454084 -0.823482
  H 1.561625 -1.434528 0.473131
  H 1.017105 0.209569 0.865830
  Pt 3.865266 -0.824059 0.114797
  N 2.549083 2.620907 -0.131517
  N 5.810541 -1.442188 0.224041
  Cl 4.184465 0.225573 2.284829
  Cl 3.749146 -1.937210 -2.036633
  H 1.947132 3.047808 -0.820944
  H 2.132880 2.512948 0.784146
  H 3.494785 2.970226 -0.110163
  H 6.144752 -1.236736 1.169668
  H 5.842890 -2.440445 0.014482
  H 6.351463 -0.927987 -0.472733
 16
 46.528841
  C 1.455943 -0.417012 0.091043
  H 2.355690 0.219695 -0.251018
  H 0.862152 -0.453336 -0.823948
  H 1.562151 -1.435889 0.470517
  H 1.014465 0.206027 0.867327
  Pt 3.865086 -0.822425 0.114726
  N 2.549784 2.618650 -0.132209
  N 5.810306 -1.440756 0.224128
  Cl 4.184273 0.226590 2.285097
  Cl 3.748883 -1.935465 -2.036744
  H 1.947811 3.049103 -0.819469
  H 2.136216 2.513746 0.785020
  H 3.497223 2.963558 -0.113896
  H 6.144249 -1.235080 1.169798
  H 5.842052 -2.439188 0.015327
  H 6.351782 -0.927272 -0.472727
 16
 46.493558
  C 1.455055 -0.417553 0.091028
  H 2.353852 0.221666 -0.248550
  H 0.861903 -0.452578 -0.824429
  H 1.562621 -1.437255 0.467949
  H 1.011923 0.202563 0.868753
  Pt 3.864839 -0.820849 0.114672
  N 2.550506 2.616429 -0.132843
  N 5.810033 -1.439301 0.224210
  Cl 4.183985 0.227591 2.285364
  Cl 3.748604 -1.933812 -2.036825
  H 1.948529 3.050321 -0.817995
  H 2.139571 2.514559 0.785928
  H 3.499651 2.956932 -0.117580
  H 6.143754 -1.233354 1.169899
  H 5.841264 -2.437912 0.016157
  H 6.351977 -0.926503 -0.472770
 16
 46.459333
  C 1.454199 -0.418106 0.091005
  H 2.352085 0.223571 -0.246129
  H 0.861699 -0.451804 -0.824922
  H 1.563038 -1.438607 0.465426
  H 1.009475 0.199185 0.870104
  Pt 3.864531 -0.819328 0.114638
  N 2.551245 2.614230 -0.133422
  N 5.809734 -1.437832 0.224287
  Cl 4.183611 0.228578 2.285641
  Cl 3.748303 -1.932238 -2.036874
  H 1.949286 3.051450 -0.816520
  H 2.142949 2.515366 0.786860
  H 3.502057 2.950335 -0.121215
  H 6.143273 -1.231565 1.169971
  H 5.840525 -2.436607 0.016973
  H 6.352061 -0.925684 -0.472855
