 16
 39.138803
  C 1.672625 -0.246008 1.023516
  H 2.411100 0.134871 -1.295182
  H 0.913169 -0.641577 0.352664
  H 1.918582 -0.946421 1.826153
  H 1.335892 0.685912 1.482713
  Pt 3.435135 0.054941 -0.091537
  N 3.421010 2.131088 -0.029637
  N 3.726785 -2.006412 -0.166289
  Cl 4.775310 -0.243561 -2.376355
  Cl 5.240589 0.255348 1.692762
  H 3.938072 2.348380 0.825849
  H 3.959060 2.438279 -0.852679
  H 2.492434 2.551350 -0.029109
  H 3.389769 -2.349363 -1.064175
  H 4.746634 -2.087749 -0.145380
  H 3.317516 -2.502163 0.613658
 16
 38.668277
  C 1.676966 -0.243000 1.030365
  H 2.410866 0.130665 -1.304030
  H 0.915170 -0.645889 0.362038
  H 1.924666 -0.942124 1.836508
  H 1.334638 0.693271 1.486980
  Pt 3.435190 0.057020 -0.099620
  N 3.421376 2.130847 -0.037586
  N 3.726090 -2.006113 -0.174177
  Cl 4.789615 -0.225515 -2.371515
  Cl 5.226899 0.256661 1.694614
  H 3.942811 2.349728 0.825274
  H 3.949859 2.432753 -0.846256
  H 2.494736 2.550143 -0.037849
  H 3.390054 -2.350214 -1.075176
  H 4.745793 -2.086731 -0.150459
  H 3.303958 -2.512218 0.623322
 16
 37.904925
  C 1.681555 -0.242409 1.039915
  H 2.409865 0.122059 -1.310744
  H 0.918532 -0.651387 0.375382
  H 1.929716 -0.937999 1.847513
  H 1.335350 0.695720 1.491739
  Pt 3.433887 0.054321 -0.103814
  N 3.421371 2.129915 -0.040898
  N 3.722472 -2.006924 -0.178509
  Cl 4.803465 -0.212771 -2.361616
  Cl 5.211528 0.251953 1.702560
  H 3.940605 2.347084 0.819667
  H 3.954461 2.434566 -0.855396
  H 2.494481 2.549805 -0.041852
  H 3.388928 -2.350443 -1.079356
  H 4.741760 -2.088091 -0.151059
  H 3.300990 -2.506803 0.609155
 16
 37.493998
  C 1.684116 -0.237266 1.052896
  H 2.384487 0.125126 -1.294387
  H 0.916374 -0.649097 0.395657
  H 1.934848 -0.929367 1.861927
  H 1.340514 0.703154 1.500275
  Pt 3.441474 0.051394 -0.117722
  N 3.429253 2.126011 -0.050384
  N 3.729080 -2.010304 -0.196786
  Cl 4.803675 -0.209479 -2.344951
  Cl 5.146125 0.275919 1.741052
  H 3.947802 2.340498 0.808078
  H 3.964725 2.433829 -0.869209
  H 2.502255 2.545828 -0.050001
  H 3.395554 -2.352211 -1.097752
  H 4.748375 -2.092269 -0.169133
  H 3.309899 -2.507663 0.583794
 16
 37.143138
  C 1.691290 -0.240654 1.047901
  H 2.400376 0.114320 -1.315005
  H 0.926847 -0.655644 0.392004
  H 1.945254 -0.931035 1.858009
  H 1.344980 0.695175 1.492361
  Pt 3.432211 0.053237 -0.110954
  N 3.421475 2.128391 -0.046683
  N 3.716296 -2.008874 -0.186161
  Cl 4.821024 -0.194387 -2.349437
  Cl 5.183169 0.258505 1.723356
  H 3.938933 2.343051 0.813229
  H 3.957758 2.434579 -0.863830
  H 2.494344 2.549005 -0.048384
  H 3.384651 -2.351683 -1.087476
  H 4.734907 -2.092673 -0.155217
  H 3.292204 -2.504736 0.596077
 16
 36.753375
  C 1.694973 -0.233218 1.058854
  H 2.376648 0.119391 -1.302531
  H 0.924352 -0.650913 0.409424
  H 1.951339 -0.920949 1.869841
  H 1.350346 0.708604 1.500778
  Pt 3.438374 0.050534 -0.124267
  N 3.426768 2.124238 -0.056148
  N 3.723509 -2.012489 -0.203363
  Cl 4.822088 -0.187719 -2.334955
  Cl 5.124385 0.276246 1.755751
  H 3.944823 2.337412 0.803754
  H 3.961609 2.431718 -0.872825
  H 2.499599 2.543884 -0.056291
  H 3.392441 -2.354367 -1.105210
  H 4.743316 -2.096531 -0.171555
  H 3.298841 -2.509460 0.577599
 16
 36.414756
  C 1.699914 -0.231663 1.060015
  H 2.380608 0.117854 -1.301120
  H 0.928993 -0.650897 0.411744
  H 1.958246 -0.918246 1.871583
  H 1.355881 0.709596 1.500066
  Pt 3.435697 0.050538 -0.126192
  N 3.423909 2.123727 -0.058117
  N 3.720099 -2.013217 -0.204940
  Cl 4.829010 -0.180616 -2.331206
  Cl 5.120423 0.274547 1.759063
  H 3.941425 2.336650 0.802729
  H 3.959190 2.430965 -0.874037
  H 2.496174 2.543399 -0.058938
  H 3.390029 -2.355178 -1.106932
  H 4.738976 -2.098252 -0.171813
  H 3.293769 -2.510230 0.576002
 16
 36.067643
  C 1.705260 -0.230129 1.061647
  H 2.384345 0.115780 -1.300239
  H 0.933807 -0.651283 0.415011
  H 1.965956 -0.915170 1.873779
  H 1.361474 0.711557 1.499987
  Pt 3.432719 0.050335 -0.128422
  N 3.420820 2.123168 -0.060339
  N 3.716264 -2.013976 -0.206817
  Cl 4.837039 -0.172386 -2.326479
  Cl 5.115421 0.272419 1.762989
  H 3.937472 2.335645 0.801209
  H 3.956922 2.430298 -0.875809
  H 2.493007 2.542677 -0.061914
  H 3.387268 -2.356137 -1.109153
  H 4.735003 -2.100224 -0.172081
  H 3.288326 -2.510596 0.573441
 16
 35.685027
  C 1.711408 -0.228484 1.063956
  H 2.387819 0.112904 -1.300394
  H 0.939041 -0.652177 0.419778
  H 1.975175 -0.911410 1.876802
  H 1.367714 0.714072 1.500286
  Pt 3.429404 0.049942 -0.131283
  N 3.417499 2.122559 -0.063142
  N 3.711892 -2.014765 -0.209281
  Cl 4.847014 -0.162182 -2.320276
  Cl 5.108858 0.269719 1.767755
  H 3.933115 2.334431 0.799248
  H 3.954606 2.429503 -0.878021
  H 2.489560 2.541958 -0.065606
  H 3.384223 -2.357215 -1.111992
  H 4.730415 -2.102460 -0.172525
  H 3.281900 -2.510910 0.570219
 16
 35.203842
  C 1.719070 -0.226452 1.067638
  H 2.390732 0.108516 -1.302580
  H 0.945045 -0.653896 0.427571
  H 1.987340 -0.906176 1.881624
  H 1.375377 0.717328 1.501109
  Pt 3.425368 0.049307 -0.135377
  N 3.413675 2.121816 -0.067090
  N 3.706438 -2.015645 -0.212896
  Cl 4.860784 -0.147954 -2.311093
  Cl 5.099117 0.265990 1.774154
  H 3.927913 2.332782 0.796415
  H 3.952187 2.428441 -0.881178
  H 2.485705 2.541127 -0.070706
  H 3.380589 -2.358585 -1.116071
  H 4.724676 -2.105248 -0.173296
  H 3.273608 -2.511053 0.565527
 16
 34.589380
  C 1.728209 -0.223910 1.073331
  H 2.392087 0.102541 -1.308311
  H 0.951274 -0.656630 0.439887
  H 2.002991 -0.898884 1.888957
  H 1.384560 0.721559 1.502987
  Pt 3.420647 0.048321 -0.141180
  N 3.409520 2.120809 -0.072586
  N 3.699910 -2.016663 -0.218172
  Cl 4.879482 -0.128155 -2.297610
  Cl 5.084872 0.261357 1.782331
  H 3.921949 2.330473 0.792357
  H 3.949964 2.426901 -0.885630
  H 2.481512 2.540159 -0.077667
  H 3.376511 -2.360416 -1.121919
  H 4.717799 -2.108696 -0.174613
  H 3.263174 -2.511007 0.558831
 16
 33.940217
  C 1.736377 -0.221302 1.080304
  H 2.390467 0.095398 -1.317446
  H 0.955625 -0.659882 0.455262
  H 2.018405 -0.890773 1.897892
  H 1.392697 0.726050 1.505680
  Pt 3.416500 0.047430 -0.147672
  N 3.406270 2.119766 -0.078580
  N 3.694161 -2.017488 -0.224315
  Cl 4.899365 -0.106653 -2.281883
  Cl 5.068437 0.256191 1.790206
  H 3.916839 2.328026 0.787818
  H 3.948793 2.425159 -0.890518
  H 2.478459 2.539223 -0.085121
  H 3.373331 -2.362265 -1.128547
  H 4.711624 -2.111780 -0.176488
  H 3.253357 -2.510598 0.551155
 16
 33.317667
  C 1.743453 -0.218705 1.087600
  H 2.387554 0.088202 -1.327565
  H 0.958335 -0.662966 0.471602
  H 2.032803 -0.882455 1.907085
  H 1.400094 0.730680 1.508821
  Pt 3.412862 0.046433 -0.154267
  N 3.403645 2.118625 -0.084531
  N 3.689188 -2.018264 -0.230739
  Cl 4.919076 -0.085070 -2.265224
  Cl 5.051563 0.251059 1.796784
  H 3.912410 2.325619 0.783210
  H 3.948278 2.423269 -0.895471
  H 2.475707 2.538455 -0.092462
  H 3.370798 -2.364131 -1.135436
  H 4.706406 -2.114460 -0.178662
  H 3.244356 -2.510173 0.543411
 16
 32.729671
  C 1.750014 -0.215957 1.094786
  H 2.384363 0.080847 -1.337525
  H 0.960421 -0.665619 0.488324
  H 2.046858 -0.873915 1.916245
  H 1.407456 0.735497 1.511808
  Pt 3.409200 0.045349 -0.160886
  N 3.400876 2.117377 -0.090457
  N 3.684467 -2.019093 -0.237254
  Cl 4.938838 -0.063069 -2.247735
  Cl 5.034676 0.245996 1.802211
  H 3.907859 2.323371 0.778574
  H 3.947437 2.421176 -0.900240
  H 2.473967 2.537077 -0.099751
  H 3.368522 -2.366003 -1.142168
  H 4.700925 -2.116818 -0.180953
  H 3.235984 -2.509469 0.535190
 16
 32.192197
  C 1.756382 -0.213092 1.101597
  H 2.381390 0.073544 -1.346878
  H 0.961885 -0.667852 0.504572
  H 2.060582 -0.865106 1.924585
  H 1.415139 0.740787 1.514670
  Pt 3.405729 0.044111 -0.167298
  N 3.398441 2.115975 -0.095992
  N 3.679850 -2.020126 -0.243783
  Cl 4.958597 -0.041090 -2.229816
  Cl 5.018893 0.240462 1.806527
  H 3.903746 2.320977 0.774137
  H 3.947364 2.419086 -0.905317
  H 2.468929 2.537301 -0.106577
  H 3.365932 -2.368135 -1.149520
  H 4.697171 -2.119383 -0.183281
  H 3.226986 -2.509784 0.528429
