 16
 52.092485
  C 0.972779 -0.121762 -0.116249
  H 2.101570 -0.003675 0.046854
  H 0.903211 -0.422522 -1.163786
  H 0.664812 -0.934987 0.544343
  H 0.494960 0.821172 0.135351
  Pt 3.750325 0.251930 0.318950
  N 3.703591 2.349366 0.614832
  N 3.921274 -1.766446 -0.120178
  Cl 2.139922 -2.511904 -2.497557
  Cl 6.124583 0.527456 0.657181
  H 4.493290 2.551845 1.227501
  H 3.868958 2.789544 -0.293148
  H 2.833782 2.698533 1.021686
  H 3.274723 -2.034934 -0.948604
  H 4.887686 -1.938063 -0.411446
  H 3.714425 -2.362952 0.685393
 16
 50.878378
  C 0.949174 -0.125390 -0.124747
  H 2.061872 -0.009158 0.043643
  H 0.881943 -0.425484 -1.169664
  H 0.640958 -0.934289 0.532342
  H 0.468058 0.819016 0.126224
  Pt 3.769908 0.254894 0.317126
  N 3.714214 2.349400 0.618389
  N 3.937584 -1.765239 -0.114627
  Cl 2.143472 -2.496000 -2.486791
  Cl 6.144148 0.517673 0.646988
  H 4.507813 2.554622 1.227003
  H 3.870288 2.793033 -0.292742
  H 2.842627 2.695117 1.033577
  H 3.282253 -2.037551 -0.938604
  H 4.898262 -1.939060 -0.412187
  H 3.737318 -2.358982 0.695194
 16
 50.184547
  C 0.916063 -0.123709 -0.134034
  H 2.035541 -0.008265 0.045527
  H 0.848807 -0.427664 -1.179742
  H 0.590305 -0.939156 0.532291
  H 0.433956 0.819042 0.107115
  Pt 3.787257 0.253839 0.316538
  N 3.726670 2.349337 0.618676
  N 3.959845 -1.762667 -0.117194
  Cl 2.145512 -2.481909 -2.454057
  Cl 6.163251 0.499206 0.648915
  H 4.517650 2.556428 1.219578
  H 3.872996 2.790861 -0.282017
  H 2.858706 2.687686 1.037949
  H 3.305447 -2.028680 -0.929539
  H 4.923571 -1.938479 -0.421595
  H 3.764313 -2.353267 0.692711
 16
 49.667355
  C 0.904389 -0.127463 -0.138595
  H 2.021315 -0.006257 0.054725
  H 0.844283 -0.435811 -1.180334
  H 0.574054 -0.929542 0.520003
  H 0.411039 0.825960 0.095784
  Pt 3.794920 0.249833 0.315571
  N 3.727773 2.346621 0.619466
  N 3.974033 -1.762496 -0.120803
  Cl 2.143598 -2.468443 -2.419947
  Cl 6.173061 0.486738 0.655888
  H 4.528211 2.558993 1.223259
  H 3.867809 2.795754 -0.291440
  H 2.860939 2.676961 1.043223
  H 3.307411 -2.028594 -0.938701
  H 4.935320 -1.936833 -0.428388
  H 3.781736 -2.352819 0.691412
 16
 49.284915
  C 0.901711 -0.129868 -0.142139
  H 2.003878 0.004853 0.067117
  H 0.854339 -0.443919 -1.187985
  H 0.569377 -0.930727 0.518109
  H 0.405275 0.811651 0.080738
  Pt 3.801489 0.249454 0.311824
  N 3.731343 2.345744 0.618245
  N 3.979546 -1.759758 -0.122744
  Cl 2.130433 -2.447828 -2.397880
  Cl 6.174576 0.476464 0.660783
  H 4.529740 2.558805 1.216720
  H 3.865219 2.794440 -0.288329
  H 2.865637 2.672398 1.045728
  H 3.309221 -2.026157 -0.936302
  H 4.939163 -1.935040 -0.432316
  H 3.788944 -2.347910 0.689552
 16
 48.979534
  C 0.894094 -0.133720 -0.147700
  H 1.993453 0.023826 0.083668
  H 0.862461 -0.451634 -1.191360
  H 0.558541 -0.935722 0.512776
  H 0.380243 0.809370 0.067025
  Pt 3.810219 0.247450 0.309124
  N 3.733519 2.343330 0.615833
  N 3.990912 -1.761030 -0.121991
  Cl 2.114671 -2.420848 -2.385296
  Cl 6.179410 0.462497 0.662726
  H 4.534723 2.560625 1.212280
  H 3.860632 2.793552 -0.291714
  H 2.867382 2.664555 1.047655
  H 3.316650 -2.025250 -0.929910
  H 4.950272 -1.937439 -0.434014
  H 3.802710 -2.346960 0.692022
 16
 48.746554
  C 0.896748 -0.141066 -0.152675
  H 1.980969 0.057322 0.109345
  H 0.890923 -0.464184 -1.195213
  H 0.565878 -0.943764 0.506799
  H 0.360801 0.789345 0.048290
  Pt 3.814034 0.246307 0.305130
  N 3.736693 2.341689 0.613648
  N 3.991565 -1.762012 -0.124132
  Cl 2.097823 -2.393349 -2.365919
  Cl 6.179696 0.460197 0.670040
  H 4.540350 2.560138 1.205821
  H 3.857280 2.793178 -0.294354
  H 2.872653 2.660186 1.050722
  H 3.310402 -2.024367 -0.928661
  H 4.948562 -1.940126 -0.439703
  H 3.805513 -2.346891 0.691983
 16
 48.571996
  C 0.893331 -0.129675 -0.148934
  H 1.982569 0.064810 0.116028
  H 0.891025 -0.456476 -1.190094
  H 0.558397 -0.930817 0.510387
  H 0.356038 0.805744 0.048647
  Pt 3.819141 0.238297 0.299504
  N 3.729774 2.333634 0.607614
  N 4.004978 -1.768309 -0.125260
  Cl 2.092142 -2.383017 -2.370045
  Cl 6.172814 0.454675 0.684008
  H 4.533713 2.558043 1.198609
  H 3.844683 2.786266 -0.300236
  H 2.864368 2.645334 1.046875
  H 3.322179 -2.030583 -0.925400
  H 4.962229 -1.944222 -0.442366
  H 3.822510 -2.351102 0.691788
 16
 48.441589
  C 0.897105 -0.126969 -0.149123
  H 1.975804 0.088174 0.131765
  H 0.910589 -0.458454 -1.189805
  H 0.564243 -0.929949 0.512041
  H 0.350248 0.799691 0.038580
  Pt 3.820383 0.234653 0.294804
  N 3.726927 2.328529 0.604177
  N 4.006993 -1.772529 -0.127883
  Cl 2.086045 -2.363563 -2.358619
  Cl 6.172352 0.456256 0.692985
  H 4.531439 2.554997 1.192036
  H 3.836805 2.783342 -0.304823
  H 2.862010 2.637184 1.047317
  H 3.319983 -2.034746 -0.926868
  H 4.963036 -1.948763 -0.446888
  H 3.825931 -2.355250 0.691426
 16
 48.337431
  C 0.894560 -0.115184 -0.145354
  H 1.979114 0.087691 0.133281
  H 0.907370 -0.450151 -1.184464
  H 0.558196 -0.913981 0.514719
  H 0.351341 0.817117 0.039747
  Pt 3.823473 0.228070 0.290711
  N 3.718189 2.322031 0.600042
  N 4.018224 -1.777247 -0.127683
  Cl 2.084094 -2.358646 -2.363983
  Cl 6.170860 0.445983 0.697958
  H 4.522449 2.553888 1.187071
  H 3.823298 2.777477 -0.307356
  H 2.852539 2.624607 1.044594
  H 3.332040 -2.039893 -0.923098
  H 4.974305 -1.950853 -0.447072
  H 3.839840 -2.358306 0.692007
 16
 48.253654
  C 0.895749 -0.110911 -0.145010
  H 1.974802 0.103614 0.144466
  H 0.918571 -0.449400 -1.183199
  H 0.558692 -0.911651 0.517478
  H 0.346132 0.817947 0.033149
  Pt 3.824787 0.224654 0.287049
  N 3.714763 2.316962 0.596865
  N 4.021815 -1.781889 -0.129427
  Cl 2.083609 -2.342687 -2.356097
  Cl 6.171622 0.446345 0.703585
  H 4.519739 2.551219 1.182160
  H 3.815903 2.774699 -0.312035
  H 2.848800 2.616455 1.044425
  H 3.332770 -2.044460 -0.924199
  H 4.977667 -1.955581 -0.450187
  H 3.844469 -2.362712 0.692100
 16
 48.185309
  C 0.895191 -0.102053 -0.141545
  H 1.976216 0.103237 0.145904
  H 0.917175 -0.443804 -1.178803
  H 0.555837 -0.898403 0.520105
  H 0.350051 0.828759 0.033430
  Pt 3.826422 0.219680 0.283746
  N 3.708040 2.312213 0.593669
  N 4.028943 -1.785338 -0.129438
  Cl 2.084195 -2.338205 -2.359755
  Cl 6.170140 0.439236 0.706973
  H 4.512297 2.550020 1.177740
  H 3.805392 2.770153 -0.313315
  H 2.841988 2.607304 1.042486
  H 3.340244 -2.048324 -0.922137
  H 4.984496 -1.957008 -0.450335
  H 3.853265 -2.364866 0.692397
 16
 48.127193
  C 0.894234 -0.097910 -0.140888
  H 1.973297 0.113780 0.154317
  H 0.922270 -0.442182 -1.176962
  H 0.552572 -0.895412 0.522768
  H 0.344360 0.833282 0.029308
  Pt 3.828105 0.216304 0.280862
  N 3.704861 2.307691 0.590607
  N 4.033661 -1.789646 -0.130347
  Cl 2.086208 -2.324420 -2.355290
  Cl 6.171527 0.437794 0.710633
  H 4.509979 2.548101 1.173870
  H 3.798977 2.767568 -0.317814
  H 2.838213 2.599705 1.041663
  H 3.343380 -2.052204 -0.922368
  H 4.989458 -1.961208 -0.452116
  H 3.858787 -2.368642 0.692879
 16
 48.075979
  C 0.894177 -0.090509 -0.137481
  H 1.973682 0.112898 0.155483
  H 0.920855 -0.437571 -1.173104
  H 0.550141 -0.884095 0.525893
  H 0.349587 0.841309 0.029747
  Pt 3.829133 0.212279 0.278154
  N 3.699390 2.303707 0.587742
  N 4.039042 -1.792668 -0.130342
  Cl 2.088557 -2.319509 -2.358814
  Cl 6.169885 0.433039 0.713522
  H 4.503565 2.546773 1.169762
  H 3.790443 2.763628 -0.319134
  H 2.832770 2.592253 1.039827
  H 3.348891 -2.055721 -0.921376
  H 4.994553 -1.962544 -0.451994
  H 3.865221 -2.370668 0.693239
 16
 48.029698
  C 0.892411 -0.087341 -0.136623
  H 1.970996 0.120765 0.162721
  H 0.923283 -0.436315 -1.171052
  H 0.545834 -0.881076 0.528101
  H 0.344019 0.845896 0.026838
  Pt 3.830815 0.209020 0.275690
  N 3.696924 2.299852 0.584762
  N 4.043467 -1.796456 -0.130852
  Cl 2.091773 -2.306656 -2.356167
  Cl 6.171347 0.431550 0.716408
  H 4.501926 2.545254 1.166255
  H 3.785255 2.761095 -0.323083
  H 2.829825 2.585726 1.038611
  H 3.352520 -2.058771 -0.921173
  H 4.999296 -1.966202 -0.453044
  H 3.870201 -2.373737 0.693731
