 16
 220.522617
  C 1.414022 -0.897891 -0.497772
  H 2.568433 -1.019733 -0.496030
  H 1.124814 -1.097684 -1.527552
  H 1.010886 -1.632297 0.195917
  H 1.205461 0.123348 -0.188751
  Pt 3.932215 -1.557640 -0.463969
  N 1.947091 4.976743 1.681655
  N 5.921269 -2.145802 -0.281468
  Cl 2.607453 3.413169 1.366876
  Cl 3.742908 -3.232072 -2.113475
  H 1.636167 5.436998 0.829582
  H 1.178592 4.615985 2.237175
  H 2.598059 5.548591 2.213486
  H 6.196056 -2.262514 0.690440
  H 5.904411 -3.034565 -0.787128
  H 6.512997 -1.463900 -0.751571
 16
 204.719162
  C 1.406159 -0.892817 -0.496388
  H 2.553210 -1.013713 -0.496117
  H 1.116407 -1.091564 -1.525292
  H 1.000188 -1.625770 0.195028
  H 1.198478 0.129854 -0.186209
  Pt 3.945693 -1.571304 -0.464767
  N 1.939765 4.990749 1.685711
  N 5.935339 -2.156534 -0.283660
  Cl 2.620408 3.387050 1.362805
  Cl 3.751458 -3.253055 -2.124515
  H 1.625379 5.455115 0.826752
  H 1.160127 4.636967 2.247177
  H 2.591653 5.572661 2.223207
  H 6.213771 -2.276360 0.686042
  H 5.917715 -3.043014 -0.789197
  H 6.525086 -1.477529 -0.753162
 16
 196.302004
  C 1.396540 -0.887196 -0.497551
  H 2.540349 -1.006275 -0.495479
  H 1.106963 -1.087708 -1.529255
  H 0.987889 -1.621117 0.194338
  H 1.188141 0.134135 -0.189145
  Pt 3.950601 -1.579276 -0.461255
  N 1.935341 5.001288 1.688460
  N 5.945503 -2.160660 -0.283453
  Cl 2.627148 3.370338 1.361395
  Cl 3.758900 -3.262088 -2.120710
  H 1.625023 5.456098 0.837285
  H 1.158861 4.655285 2.252074
  H 2.580266 5.576617 2.217237
  H 6.228697 -2.282259 0.689512
  H 5.929239 -3.063801 -0.796219
  H 6.541377 -1.472644 -0.759818
 16
 184.817494
  C 1.385167 -0.886050 -0.498750
  H 2.546989 -0.999964 -0.497841
  H 1.084517 -1.088398 -1.527539
  H 0.981720 -1.620176 0.195780
  H 1.180483 0.135860 -0.189901
  Pt 3.961565 -1.578355 -0.464518
  N 1.924117 5.017853 1.696128
  N 5.946150 -2.162951 -0.284849
  Cl 2.640773 3.338639 1.356574
  Cl 3.777034 -3.278005 -2.128626
  H 1.621039 5.460860 0.840128
  H 1.163694 4.678134 2.250510
  H 2.573653 5.585484 2.224270
  H 6.234389 -2.286307 0.685677
  H 5.940129 -3.064108 -0.792140
  H 6.539417 -1.481779 -0.757488
 16
 176.247432
  C 1.362682 -0.886791 -0.498040
  H 2.544000 -0.990230 -0.499775
  H 1.064481 -1.081771 -1.518470
  H 0.959464 -1.621613 0.192664
  H 1.162590 0.137150 -0.184660
  Pt 3.966077 -1.580531 -0.467620
  N 1.917677 5.035014 1.699400
  N 5.958781 -2.180056 -0.285712
  Cl 2.651126 3.313250 1.351523
  Cl 3.782855 -3.280933 -2.147286
  H 1.618005 5.474858 0.838449
  H 1.154334 4.696815 2.259446
  H 2.571658 5.591639 2.223271
  H 6.247562 -2.304534 0.680280
  H 5.973656 -3.060953 -0.771191
  H 6.565889 -1.490576 -0.764864
 16
 166.423134
  C 1.340252 -0.888189 -0.500156
  H 2.538870 -0.986220 -0.502353
  H 1.042243 -1.081343 -1.523582
  H 0.925909 -1.614327 0.193198
  H 1.139573 0.136320 -0.191498
  Pt 3.970427 -1.580721 -0.470109
  N 1.911244 5.056023 1.706021
  N 5.980761 -2.184754 -0.290712
  Cl 2.672081 3.278832 1.347466
  Cl 3.793239 -3.302195 -2.146640
  H 1.615569 5.496059 0.846437
  H 1.140140 4.724441 2.270497
  H 2.565181 5.612941 2.228896
  H 6.272959 -2.308186 0.670520
  H 6.018916 -3.078085 -0.775481
  H 6.573473 -1.509860 -0.755090
 16
 157.173514
  C 1.318200 -0.890789 -0.502762
  H 2.510399 -0.975747 -0.506948
  H 1.019667 -1.092456 -1.549085
  H 0.906749 -1.619587 0.196107
  H 1.118608 0.132637 -0.193530
  Pt 3.969137 -1.587375 -0.472816
  N 1.903360 5.079440 1.711047
  N 5.996741 -2.188624 -0.296237
  Cl 2.688788 3.240337 1.340139
  Cl 3.799891 -3.322818 -2.155053
  H 1.611911 5.503738 0.852231
  H 1.127587 4.752437 2.284774
  H 2.585483 5.641430 2.241879
  H 6.295354 -2.308656 0.696088
  H 6.056227 -3.083317 -0.766968
  H 6.592732 -1.509916 -0.771452
 16
 148.987555
  C 1.302230 -0.889015 -0.507310
  H 2.469582 -0.972563 -0.507450
  H 1.004575 -1.085710 -1.552538
  H 0.890938 -1.610544 0.189508
  H 1.107547 0.140511 -0.191356
  Pt 3.960842 -1.594944 -0.471850
  N 1.894808 5.100386 1.727314
  N 6.025083 -2.201211 -0.291203
  Cl 2.710609 3.195119 1.346232
  Cl 3.789099 -3.350146 -2.160309
  H 1.598243 5.540705 0.831263
  H 1.119766 4.785083 2.300842
  H 2.572424 5.648710 2.249770
  H 6.314408 -2.320085 0.670661
  H 6.112711 -3.106252 -0.759396
  H 6.627974 -1.509307 -0.766764
 16
 142.118903
  C 1.287225 -0.893111 -0.517069
  H 2.425876 -0.963061 -0.520436
  H 1.003848 -1.084965 -1.517149
  H 0.886084 -1.611640 0.179160
  H 1.090873 0.135819 -0.201761
  Pt 3.953944 -1.597079 -0.486319
  N 1.888832 5.126424 1.731629
  N 6.037644 -2.198919 -0.287406
  Cl 2.737552 3.140701 1.334974
  Cl 3.793273 -3.383190 -2.191306
  H 1.605291 5.543341 0.855261
  H 1.115325 4.818888 2.310756
  H 2.571618 5.654233 2.239323
  H 6.328205 -2.307078 0.677520
  H 6.142648 -3.098381 -0.739704
  H 6.632598 -1.511250 -0.760057
 16
 136.051963
  C 1.291614 -0.905664 -0.523743
  H 2.416321 -0.959314 -0.522199
  H 1.004510 -1.102088 -1.547346
  H 0.881595 -1.640177 0.199045
  H 1.092014 0.107841 -0.215934
  Pt 3.977537 -1.603347 -0.481680
  N 1.883704 5.153599 1.739675
  N 6.013451 -2.178122 -0.282579
  Cl 2.772489 3.080433 1.323850
  Cl 3.824637 -3.423208 -2.194417
  H 1.615257 5.556169 0.857530
  H 1.103932 4.850772 2.325128
  H 2.600118 5.675770 2.257009
  H 6.291191 -2.272534 0.671412
  H 6.121748 -3.092735 -0.745499
  H 6.610716 -1.476659 -0.752838
 16
 133.052332
  C 1.296803 -0.914081 -0.517375
  H 2.400509 -0.960514 -0.517072
  H 0.996086 -1.121872 -1.580698
  H 0.891871 -1.618130 0.191572
  H 1.086686 0.124821 -0.206602
  Pt 4.010535 -1.626773 -0.471751
  N 1.887809 5.161500 1.757303
  N 5.998385 -2.153175 -0.289775
  Cl 2.812401 3.001981 1.313874
  Cl 3.848112 -3.469687 -2.213876
  H 1.612718 5.570380 0.852169
  H 1.124460 4.873566 2.342702
  H 2.587676 5.657610 2.241745
  H 6.289502 -2.235159 0.713781
  H 6.088646 -3.060028 -0.752403
  H 6.568637 -1.459704 -0.756179
 16
 130.463488
  C 1.279479 -0.917472 -0.524783
  H 2.403249 -0.958366 -0.519577
  H 0.985542 -1.124426 -1.562077
  H 0.872456 -1.614463 0.175257
  H 1.062905 0.122735 -0.221783
  Pt 4.027325 -1.636414 -0.463852
  N 1.880266 5.171825 1.759255
  N 6.003216 -2.150191 -0.287841
  Cl 2.827421 2.966108 1.306691
  Cl 3.871326 -3.481086 -2.198143
  H 1.612396 5.569516 0.860861
  H 1.116685 4.887499 2.342899
  H 2.607491 5.676276 2.252961
  H 6.287374 -2.227086 0.702713
  H 6.089887 -3.062419 -0.754785
  H 6.573818 -1.451299 -0.760382
 16
 129.762785
  C 1.245360 -0.906519 -0.539687
  H 2.384978 -0.943284 -0.528993
  H 0.958189 -1.112455 -1.556708
  H 0.813126 -1.643128 0.194311
  H 1.028671 0.100183 -0.255995
  Pt 4.028550 -1.637570 -0.464096
  N 1.882226 5.190007 1.762320
  N 6.035232 -2.150660 -0.282166
  Cl 2.854727 2.922425 1.301823
  Cl 3.884393 -3.480616 -2.182236
  H 1.627628 5.574595 0.873714
  H 1.110739 4.904303 2.349141
  H 2.613520 5.676953 2.247378
  H 6.308835 -2.224553 0.685282
  H 6.119879 -3.044845 -0.742276
  H 6.604784 -1.454098 -0.754396
 16
 127.822469
  C 1.241305 -0.912140 -0.540766
  H 2.368581 -0.940851 -0.528334
  H 0.946056 -1.124049 -1.563137
  H 0.831619 -1.632909 0.171066
  H 1.016374 0.119547 -0.251952
  Pt 4.028147 -1.638816 -0.458756
  N 1.878074 5.198460 1.766105
  N 6.034640 -2.142500 -0.280934
  Cl 2.870882 2.883525 1.296631
  Cl 3.893564 -3.487291 -2.157326
  H 1.630201 5.568917 0.869863
  H 1.101964 4.908705 2.357910
  H 2.627445 5.674749 2.247276
  H 6.308960 -2.213452 0.690775
  H 6.117077 -3.051395 -0.751035
  H 6.605949 -1.439762 -0.759972
 16
 127.329509
  C 1.236768 -0.909013 -0.542331
  H 2.357355 -0.933805 -0.528675
  H 0.934685 -1.123540 -1.562747
  H 0.839633 -1.621502 0.157115
  H 1.016343 0.106428 -0.257297
  Pt 4.025889 -1.639032 -0.455272
  N 1.875509 5.194055 1.773604
  N 6.028427 -2.125829 -0.282056
  Cl 2.887075 2.837223 1.292782
  Cl 3.900951 -3.486389 -2.136439
  H 1.628237 5.560702 0.854282
  H 1.117875 4.907573 2.354131
  H 2.641304 5.660489 2.250754
  H 6.309108 -2.196478 0.708780
  H 6.106160 -3.038555 -0.756947
  H 6.595518 -1.421593 -0.762269
