 16
 108.241199
  C 0.177771 -0.246823 1.667575
  H 2.969280 0.290015 -0.526805
  H 0.002374 -0.016602 0.552509
  H -0.458388 -1.093640 1.961804
  H -0.166101 0.616650 2.255872
  Pt 4.269369 0.035607 -0.345904
  N 4.470453 2.089436 -0.039203
  N 4.175041 -2.026445 -0.792611
  Cl 1.704138 -0.555241 1.995489
  Cl 6.191235 0.644629 -2.052357
  H 4.973193 2.359925 -0.897900
  H 3.582255 2.567279 0.059333
  H 5.051488 2.258749 0.779148
  H 3.791325 -2.520232 0.008676
  H 3.615557 -2.158756 -1.597480
  H 5.121998 -2.336566 -1.002525
 16
 96.104855
  C 0.158371 -0.250069 1.669652
  H 2.948281 0.287875 -0.534840
  H -0.020459 -0.028264 0.564786
  H -0.487997 -1.111273 1.973869
  H -0.189088 0.618932 2.256215
  Pt 4.286599 0.035838 -0.353732
  N 4.486010 2.099881 -0.039313
  N 4.180962 -2.027814 -0.791402
  Cl 1.717140 -0.558728 2.001049
  Cl 6.203010 0.638701 -2.063808
  H 4.990475 2.374434 -0.897592
  H 3.597705 2.574178 0.060029
  H 5.067516 2.275760 0.776448
  H 3.799535 -2.515936 0.012071
  H 3.613421 -2.157627 -1.601857
  H 5.119507 -2.347902 -1.005953
 16
 85.703870
  C 0.129781 -0.248186 1.671959
  H 2.930337 0.290867 -0.530228
  H -0.052405 -0.038097 0.597229
  H -0.500302 -1.094979 1.967545
  H -0.212491 0.608227 2.250863
  Pt 4.300074 0.042647 -0.358556
  N 4.497881 2.097888 -0.041142
  N 4.187751 -2.027321 -0.792937
  Cl 1.725785 -0.563842 2.014511
  Cl 6.215694 0.651638 -2.076926
  H 5.002259 2.375733 -0.900032
  H 3.610434 2.565453 0.057749
  H 5.076343 2.274399 0.767106
  H 3.805970 -2.512746 0.009794
  H 3.613835 -2.155525 -1.597556
  H 5.140040 -2.358168 -1.013757
 16
 78.180308
  C 0.108009 -0.248105 1.674891
  H 2.913513 0.292832 -0.527780
  H -0.072102 -0.042096 0.606867
  H -0.517094 -1.099375 1.966553
  H -0.237262 0.617857 2.257232
  Pt 4.315306 0.046285 -0.365384
  N 4.511022 2.091206 -0.045569
  N 4.199501 -2.026314 -0.791348
  Cl 1.738908 -0.572112 2.028430
  Cl 6.234592 0.663359 -2.099271
  H 5.014909 2.369457 -0.900534
  H 3.599970 2.565683 0.051497
  H 5.092666 2.269012 0.772230
  H 3.822516 -2.510755 0.010837
  H 3.615679 -2.156741 -1.601489
  H 5.130853 -2.352206 -1.011540
 16
 90.055872
  C 0.108009 -0.248105 1.674891
  H 2.913513 0.292832 -0.527780
  H -0.072102 -0.042096 0.606867
  H -0.517094 -1.099375 1.966553
  H -0.237262 0.617857 2.257232
  Pt 4.315306 0.046285 -0.365384
  N 4.511022 2.091206 -0.045569
  N 4.199501 -2.026314 -0.791348
  Cl 1.738908 -0.572112 2.028430
  Cl 6.234592 0.663359 -2.099271
  H 5.014909 2.369457 -0.900534
  H 3.599970 2.565683 0.051497
  H 5.092666 2.269012 0.772230
  H 3.822516 -2.510755 0.010837
  H 3.615679 -2.156741 -1.601489
  H 5.130853 -2.352206 -1.011540
 16
 73.170479
  C 0.096072 -0.249049 1.675818
  H 2.889003 0.293359 -0.527444
  H -0.074086 -0.046999 0.604259
  H -0.526413 -1.099204 1.967277
  H -0.252504 0.615874 2.252534
  Pt 4.327717 0.046748 -0.367755
  N 4.517218 2.091752 -0.049759
  N 4.202149 -2.023407 -0.789827
  Cl 1.765038 -0.574657 2.030492
  Cl 6.246420 0.668092 -2.113972
  H 5.001584 2.361716 -0.885929
  H 3.612415 2.564165 0.047861
  H 5.106322 2.271748 0.772959
  H 3.828047 -2.512495 0.025098
  H 3.609643 -2.152515 -1.606403
  H 5.122361 -2.347141 -1.009584
 16
 68.557737
  C 0.074234 -0.251199 1.676585
  H 2.857132 0.291791 -0.520527
  H -0.084800 -0.054383 0.621617
  H -0.546412 -1.101570 1.966668
  H -0.273776 0.611595 2.249273
  Pt 4.336670 0.045291 -0.366301
  N 4.526594 2.094152 -0.048043
  N 4.202548 -2.019230 -0.787440
  Cl 1.781542 -0.581058 2.035762
  Cl 6.256239 0.671116 -2.121162
  H 5.022561 2.371146 -0.906619
  H 3.630237 2.564121 0.051872
  H 5.112945 2.271833 0.767116
  H 3.830051 -2.506730 0.025371
  H 3.603308 -2.148235 -1.603433
  H 5.141913 -2.350654 -1.015118
 16
 67.263883
  C 0.061004 -0.254297 1.678525
  H 2.843800 0.285467 -0.507939
  H -0.090035 -0.058444 0.621280
  H -0.556221 -1.107710 1.968552
  H -0.281997 0.610087 2.251968
  Pt 4.339574 0.044760 -0.368686
  N 4.535787 2.095850 -0.050588
  N 4.204347 -2.015960 -0.788027
  Cl 1.780078 -0.585117 2.037986
  Cl 6.262161 0.670618 -2.126730
  H 5.035931 2.373310 -0.914302
  H 3.634758 2.570496 0.052908
  H 5.123080 2.272274 0.761200
  H 3.832781 -2.501460 0.020077
  H 3.606946 -2.146647 -1.592784
  H 5.138992 -2.345240 -1.017817
 16
 65.421428
  C 0.036573 -0.258814 1.682177
  H 2.822446 0.277292 -0.490940
  H -0.099134 -0.062744 0.622681
  H -0.573997 -1.115772 1.971014
  H -0.295843 0.606479 2.257370
  Pt 4.342491 0.045318 -0.373743
  N 4.548239 2.098847 -0.057376
  N 4.210098 -2.009045 -0.786628
  Cl 1.774250 -0.591328 2.043413
  Cl 6.269449 0.675647 -2.137588
  H 5.049933 2.373934 -0.921220
  H 3.655912 2.572031 0.051512
  H 5.140933 2.275099 0.752319
  H 3.834126 -2.498200 0.023721
  H 3.603654 -2.143890 -1.587561
  H 5.151856 -2.336867 -1.023529
 16
 64.044063
  C 0.007596 -0.261146 1.686247
  H 2.811517 0.272240 -0.473056
  H -0.106455 -0.064446 0.633464
  H -0.597055 -1.119483 1.973458
  H -0.312072 0.603956 2.263475
  Pt 4.352157 0.047066 -0.375884
  N 4.560282 2.097378 -0.066327
  N 4.220600 -2.003987 -0.785366
  Cl 1.770360 -0.601517 2.055782
  Cl 6.283288 0.680235 -2.144896
  H 5.064375 2.367957 -0.927661
  H 3.662286 2.577143 0.045369
  H 5.152124 2.271796 0.739580
  H 3.845685 -2.491963 0.015545
  H 3.600971 -2.140883 -1.591281
  H 5.155329 -2.326361 -1.022828
 16
 62.912832
  C -0.021615 -0.263511 1.695887
  H 2.801394 0.268182 -0.451327
  H -0.113257 -0.065242 0.630396
  H -0.624110 -1.126203 1.979082
  H -0.336189 0.607381 2.270104
  Pt 4.360687 0.049925 -0.380702
  N 4.572471 2.096144 -0.073841
  N 4.222706 -1.999023 -0.793204
  Cl 1.763039 -0.610610 2.071462
  Cl 6.291101 0.689268 -2.153648
  H 5.064428 2.367259 -0.944621
  H 3.682900 2.575028 0.041712
  H 5.173406 2.269867 0.733847
  H 3.856059 -2.499892 0.018871
  H 3.616652 -2.132260 -1.584171
  H 5.161314 -2.318326 -1.034225
 16
 63.116931
  C -0.044224 -0.261447 1.702061
  H 2.798794 0.251413 -0.418474
  H -0.124905 -0.058007 0.619565
  H -0.645555 -1.125399 1.982966
  H -0.352503 0.612575 2.274317
  Pt 4.370377 0.042692 -0.378055
  N 4.585504 2.093407 -0.068743
  N 4.233454 -2.002643 -0.787237
  Cl 1.738266 -0.608941 2.069189
  Cl 6.277165 0.722719 -2.216198
  H 5.068058 2.364976 -0.940674
  H 3.699613 2.572513 0.047601
  H 5.186149 2.265850 0.733282
  H 3.883052 -2.503666 0.024846
  H 3.616573 -2.135511 -1.583882
  H 5.181169 -2.322544 -1.034941
 16
 62.414621
  C -0.054066 -0.263670 1.703401
  H 2.799045 0.247901 -0.407994
  H -0.129702 -0.060203 0.626619
  H -0.653207 -1.128471 1.983132
  H -0.359358 0.610586 2.275736
  Pt 4.371853 0.046183 -0.382183
  N 4.589857 2.097795 -0.072352
  N 4.235387 -1.999240 -0.789160
  Cl 1.733907 -0.617172 2.073142
  Cl 6.284555 0.710281 -2.216757
  H 5.071453 2.368373 -0.943568
  H 3.705638 2.578124 0.043802
  H 5.191976 2.269923 0.730392
  H 3.886561 -2.501618 0.025763
  H 3.616029 -2.132167 -1.586667
  H 5.181059 -2.318638 -1.037682
 16
 61.680396
  C -0.064194 -0.265989 1.705572
  H 2.800416 0.243673 -0.393564
  H -0.134844 -0.061087 0.631511
  H -0.661532 -1.131977 1.984212
  H -0.366516 0.608413 2.278409
  Pt 4.374541 0.050419 -0.385893
  N 4.594641 2.101721 -0.077085
  N 4.237185 -1.995545 -0.791703
  Cl 1.727929 -0.626268 2.077514
  Cl 6.291893 0.696899 -2.214087
  H 5.075136 2.370874 -0.947653
  H 3.710254 2.584124 0.039363
  H 5.197714 2.273344 0.725067
  H 3.890648 -2.497518 0.023640
  H 3.616251 -2.128015 -1.587900
  H 5.181464 -2.315081 -1.041779
 16
 61.111180
  C -0.071881 -0.268251 1.707606
  H 2.801780 0.239809 -0.381065
  H -0.139031 -0.060962 0.634369
  H -0.668005 -1.134979 1.985411
  H -0.372139 0.606571 2.280843
  Pt 4.377071 0.053427 -0.388741
  N 4.598438 2.104637 -0.080967
  N 4.238983 -1.992521 -0.793883
  Cl 1.721938 -0.633586 2.080826
  Cl 6.296849 0.687278 -2.210725
  H 5.078784 2.373453 -0.952820
  H 3.714557 2.588005 0.035677
  H 5.202275 2.275950 0.720847
  H 3.894078 -2.494660 0.022605
  H 3.616243 -2.124638 -1.589413
  H 5.181047 -2.311548 -1.044947
 16
 58.450848
  C -0.073484 -0.280724 1.716624
  H 2.793454 0.248364 -0.393124
  H -0.133915 -0.073263 0.664154
  H -0.662416 -1.151442 1.996042
  H -0.370938 0.593730 2.291859
  Pt 4.358079 0.070845 -0.408751
  N 4.585158 2.121468 -0.104971
  N 4.216405 -1.976041 -0.812021
  Cl 1.756315 -0.659599 2.113077
  Cl 6.424559 0.609482 -2.103295
  H 5.076083 2.386216 -0.973730
  H 3.702306 2.609446 0.000773
  H 5.181415 2.292045 0.702994
  H 3.862377 -2.475568 0.002941
  H 3.597999 -2.108906 -1.614299
  H 5.157589 -2.298066 -1.052648
