 16
 2.350051
  C 0.315763 -0.051259 -0.106633
  H 1.408218 0.007214 -0.020998
  H 0.034113 -0.070443 -1.162823
  H -0.044711 -0.958136 0.389507
  H -0.135920 0.818654 0.381609
  Pt 3.812118 0.005989 0.016634
  N 3.932372 2.077908 -0.101115
  N 3.740598 -2.067207 0.125074
  Cl 3.851809 0.082889 2.445172
  Cl 3.925883 -0.072492 -2.411035
  H 3.963202 2.315628 -1.091724
  H 3.128278 2.506070 0.361702
  H 4.790118 2.374274 0.366673
  H 3.754637 -2.312200 1.118439
  H 2.896845 -2.426225 -0.319006
  H 4.565827 -2.434311 -0.337506
 16
 1.870862
  C 0.280035 -0.056813 -0.109709
  H 1.371790 0.005153 -0.022864
  H -0.000888 -0.076972 -1.166093
  H -0.078050 -0.964188 0.385505
  H -0.175732 0.813281 0.378227
  Pt 3.832177 0.008946 0.017192
  N 3.954275 2.080284 -0.098255
  N 3.753360 -2.063797 0.128554
  Cl 3.863793 0.084329 2.445453
  Cl 3.938215 -0.068996 -2.409854
  H 3.978075 2.320256 -1.092527
  H 3.154098 2.506025 0.368376
  H 4.813405 2.376733 0.363300
  H 3.774393 -2.310297 1.124364
  H 2.901860 -2.419920 -0.311248
  H 4.578345 -2.437672 -0.346452
 16
 1.445800
  C 0.238613 -0.064124 -0.111567
  H 1.329297 0.002308 -0.023843
  H -0.042165 -0.085272 -1.167985
  H -0.117343 -0.974445 0.384269
  H -0.216922 0.797234 0.371212
  Pt 3.856592 0.012110 0.017197
  N 3.981094 2.083205 -0.096695
  N 3.766552 -2.059103 0.131793
  Cl 3.881781 0.086355 2.445105
  Cl 3.952056 -0.066046 -2.409230
  H 4.000146 2.324015 -1.090802
  H 3.181094 2.507809 0.372647
  H 4.844836 2.381567 0.362836
  H 3.788535 -2.304532 1.119073
  H 2.914171 -2.408671 -0.305001
  H 4.580814 -2.436058 -0.345039
 16
 1.153684
  C 0.211142 -0.069343 -0.114139
  H 1.301238 -0.000041 -0.025442
  H -0.068758 -0.091192 -1.170651
  H -0.142326 -0.979616 0.380321
  H -0.250711 0.797667 0.371751
  Pt 3.872535 0.014271 0.017362
  N 3.998394 2.084914 -0.095970
  N 3.776660 -2.056514 0.132571
  Cl 3.892743 0.087008 2.445263
  Cl 3.962355 -0.063859 -2.408856
  H 4.013237 2.326027 -1.087461
  H 3.199092 2.508278 0.376027
  H 4.860651 2.383087 0.358854
  H 3.801982 -2.304445 1.126645
  H 2.921515 -2.401960 -0.300969
  H 4.589402 -2.437929 -0.351338
 16
 0.872436
  C 0.173944 -0.075963 -0.116068
  H 1.263898 -0.003293 -0.026023
  H -0.104942 -0.098528 -1.173148
  H -0.176955 -0.986657 0.377127
  H -0.290864 0.789116 0.368642
  Pt 3.892962 0.016825 0.019008
  N 4.021673 2.087256 -0.094305
  N 3.790087 -2.053048 0.134512
  Cl 3.907254 0.088524 2.447013
  Cl 3.975235 -0.061452 -2.407147
  H 4.032563 2.330693 -1.090796
  H 3.222568 2.509136 0.380604
  H 4.886832 2.386772 0.358560
  H 3.818152 -2.301143 1.126387
  H 2.929645 -2.393310 -0.296404
  H 4.597102 -2.438576 -0.353995
 16
 0.691591
  C 0.137646 -0.081553 -0.118123
  H 1.226482 -0.005497 -0.026919
  H -0.139992 -0.105024 -1.174810
  H -0.211981 -0.995854 0.376027
  H -0.328264 0.778933 0.363554
  Pt 3.912951 0.020504 0.019477
  N 4.044717 2.090102 -0.094428
  N 3.801401 -2.049008 0.135888
  Cl 3.922470 0.092650 2.447508
  Cl 3.987241 -0.058360 -2.406839
  H 4.052366 2.331550 -1.079735
  H 3.249162 2.509596 0.380560
  H 4.907515 2.389274 0.354268
  H 3.830901 -2.297272 1.127383
  H 2.939522 -2.382299 -0.291248
  H 4.607016 -2.441390 -0.358595
 16
 0.500022
  C 0.104284 -0.089402 -0.119845
  H 1.192273 -0.010311 -0.027622
  H -0.172299 -0.113180 -1.177294
  H -0.242048 -1.002919 0.371809
  H -0.367432 0.774695 0.364482
  Pt 3.932143 0.022390 0.020613
  N 4.066435 2.092060 -0.092325
  N 3.814193 -2.046567 0.136415
  Cl 3.937454 0.093259 2.448730
  Cl 3.999568 -0.055431 -2.405972
  H 4.072220 2.338000 -1.091333
  H 3.266271 2.512330 0.386832
  H 4.933600 2.392846 0.357577
  H 3.843957 -2.296211 1.129964
  H 2.947515 -2.374677 -0.290594
  H 4.611018 -2.440528 -0.357467
 16
 0.337237
  C 0.071047 -0.095539 -0.120677
  H 1.160030 -0.013528 -0.027534
  H -0.204892 -0.120135 -1.178979
  H -0.272655 -1.008458 0.369728
  H -0.402137 0.765417 0.361863
  Pt 3.949195 0.025506 0.021591
  N 4.086947 2.094801 -0.092176
  N 3.824875 -2.043047 0.137826
  Cl 3.951719 0.096538 2.449811
  Cl 4.009910 -0.053391 -2.405147
  H 4.091929 2.339596 -1.085061
  H 3.289534 2.513384 0.385600
  H 4.952622 2.395449 0.356518
  H 3.853347 -2.291738 1.127967
  H 2.955788 -2.365592 -0.288687
  H 4.621892 -2.442911 -0.358674
 16
 0.250211
  C 0.040741 -0.101088 -0.122688
  H 1.127421 -0.016605 -0.028771
  H -0.233380 -0.125702 -1.178864
  H -0.303660 -1.021827 0.370458
  H -0.433854 0.757427 0.358692
  Pt 3.966048 0.028775 0.021681
  N 4.107401 2.097644 -0.091679
  N 3.833889 -2.039618 0.137437
  Cl 3.966320 0.099046 2.449921
  Cl 4.021235 -0.049933 -2.405311
  H 4.112134 2.343123 -1.084960
  H 3.309353 2.516628 0.386787
  H 4.973123 2.397770 0.357065
  H 3.860839 -2.289963 1.131950
  H 2.964079 -2.355855 -0.288591
  H 4.627461 -2.443470 -0.359157
 16
 0.196129
  C 0.014429 -0.108178 -0.122070
  H 1.102179 -0.021193 -0.027793
  H -0.260473 -0.133813 -1.182696
  H -0.323703 -1.018608 0.364849
  H -0.463370 0.751080 0.360155
  Pt 3.979191 0.030631 0.022981
  N 4.123495 2.099389 -0.091195
  N 3.843063 -2.037416 0.139091
  Cl 3.978309 0.101492 2.451305
  Cl 4.029472 -0.048416 -2.404182
  H 4.127540 2.344489 -1.083138
  H 3.325495 2.518699 0.387571
  H 4.988760 2.399216 0.356895
  H 3.869064 -2.285984 1.127879
  H 2.970350 -2.349954 -0.287162
  H 4.635351 -2.445082 -0.358520
 16
 0.130755
  C -0.006002 -0.111646 -0.124195
  H 1.082052 -0.023039 -0.029110
  H -0.278681 -0.137012 -1.180901
  H -0.346884 -1.032626 0.367043
  H -0.485037 0.746698 0.357523
  Pt 3.989402 0.033101 0.023260
  N 4.136874 2.101579 -0.090818
  N 3.848936 -2.034908 0.138526
  Cl 3.986587 0.103781 2.451646
  Cl 4.037476 -0.045066 -2.404101
  H 4.140805 2.347223 -1.083888
  H 3.341616 2.520121 0.386419
  H 5.004259 2.401267 0.358638
  H 3.873949 -2.284504 1.130872
  H 2.975076 -2.343622 -0.287972
  H 4.638723 -2.444992 -0.358974
 16
 0.110980
  C -0.022269 -0.115339 -0.123885
  H 1.063267 -0.025457 -0.028760
  H -0.295103 -0.141009 -1.182692
  H -0.360697 -1.033338 0.365242
  H -0.500902 0.739921 0.356333
  Pt 3.998984 0.034534 0.023784
  N 4.149127 2.102688 -0.090656
  N 3.853411 -2.033351 0.139017
  Cl 3.995648 0.105657 2.452113
  Cl 4.044346 -0.043363 -2.403790
  H 4.152707 2.348163 -1.083877
  H 3.348122 2.525558 0.390750
  H 5.012699 2.399890 0.356196
  H 3.877923 -2.282691 1.130890
  H 2.979172 -2.338395 -0.286651
  H 4.642715 -2.447114 -0.360043
 16
 0.108370
  C -0.039340 -0.120726 -0.124452
  H 1.047496 -0.028841 -0.028978
  H -0.311828 -0.146588 -1.183768
  H -0.375416 -1.037406 0.362887
  H -0.521270 0.736523 0.357484
  Pt 4.005822 0.036572 0.024069
  N 4.157627 2.104693 -0.090179
  N 3.858844 -2.031184 0.138833
  Cl 4.001501 0.107400 2.452454
  Cl 4.049267 -0.040295 -2.403591
  H 4.160451 2.350030 -1.082269
  H 3.367275 2.522392 0.385186
  H 5.028418 2.404063 0.360249
  H 3.883297 -2.280941 1.132245
  H 2.982916 -2.334278 -0.287089
  H 4.644092 -2.445061 -0.359113
 16
 0.061048
  C -0.052979 -0.122618 -0.125724
  H 1.035265 -0.029944 -0.029583
  H -0.323978 -0.148623 -1.182613
  H -0.390845 -1.044863 0.364143
  H -0.536198 0.735621 0.356216
  Pt 4.013503 0.037446 0.024886
  N 4.168509 2.105393 -0.090178
  N 3.863160 -2.029992 0.139979
  Cl 4.007517 0.109115 2.453276
  Cl 4.056398 -0.039651 -2.402807
  H 4.171633 2.350429 -1.083144
  H 3.370759 2.528539 0.389782
  H 5.034302 2.401860 0.357435
  H 3.886757 -2.277952 1.128244
  H 2.985486 -2.330790 -0.286264
  H 4.649862 -2.447616 -0.359678
 16
 0.044743
  C -0.064249 -0.125854 -0.124699
  H 1.020643 -0.031981 -0.028884
  H -0.336273 -0.151706 -1.184865
  H -0.399010 -1.043847 0.362196
  H -0.545058 0.725851 0.354624
  Pt 4.019418 0.039201 0.024672
  N 4.175830 2.106805 -0.089761
  N 3.865171 -2.028355 0.138853
  Cl 4.013811 0.110139 2.452982
  Cl 4.060313 -0.036547 -2.403235
  H 4.178270 2.352208 -1.083269
  H 3.380649 2.529608 0.389809
  H 5.042969 2.402558 0.357787
  H 3.889098 -2.278656 1.134646
  H 2.988604 -2.326143 -0.285928
  H 4.648966 -2.446928 -0.360957
