 14
 118.477809
  O 1.095818 -0.065209 -0.138388
  H 0.778941 0.757530 0.297054
  H 0.437229 -0.288057 -0.831104
  Pt 4.734428 -1.286941 0.098895
  N 5.049048 5.668540 0.567683
  N 5.200040 -3.132685 -0.278122
  Cl 2.227671 -1.602476 0.261181
  Cl 7.136048 -0.728517 -0.032914
  H 6.016799 5.837481 0.408682
  H 4.403163 5.716498 -0.200132
  H 4.704866 5.626941 1.510023
  H 4.330207 -3.676189 -0.249128
  H 5.637441 -3.202468 -1.191599
  H 5.853561 -3.477502 0.436437
 14
 113.312717
  O 1.097288 -0.056244 -0.199281
  H 0.797881 0.763687 0.236353
  H 0.443045 -0.262603 -0.893436
  Pt 4.730153 -1.307283 0.019250
  N 5.037505 5.652615 0.553643
  N 5.207104 -3.163000 -0.375301
  Cl 2.227333 -1.637493 0.191183
  Cl 7.127266 -0.718250 -0.115366
  H 6.011060 5.818980 0.397204
  H 4.390229 5.700897 -0.220862
  H 4.696472 5.592643 1.480767
  H 4.333821 -3.705103 -0.355814
  H 5.648046 -3.219413 -1.287780
  H 5.850985 -3.506243 0.336925
 14
 106.535056
  O 1.089542 -0.043688 -0.252694
  H 0.806061 0.775217 0.193084
  H 0.436743 -0.231909 -0.952106
  Pt 4.726788 -1.316437 -0.045787
  N 5.026499 5.644700 0.539573
  N 5.219324 -3.190671 -0.457635
  Cl 2.229751 -1.678926 0.132230
  Cl 7.118535 -0.713177 -0.183426
  H 6.009717 5.806676 0.387186
  H 4.376540 5.691773 -0.236613
  H 4.692905 5.562815 1.456927
  H 4.342130 -3.730050 -0.444096
  H 5.662023 -3.241057 -1.368359
  H 5.854212 -3.536945 0.253891
 14
 102.470409
  O 1.085604 -0.037674 -0.261740
  H 0.807788 0.785268 0.180689
  H 0.434585 -0.220222 -0.967317
  Pt 4.724331 -1.313898 -0.055605
  N 5.025063 5.649545 0.536943
  N 5.225047 -3.200689 -0.471490
  Cl 2.233867 -1.705262 0.128654
  Cl 7.108078 -0.699227 -0.202473
  H 6.010805 5.804843 0.385664
  H 4.374550 5.689549 -0.238157
  H 4.693204 5.549909 1.453507
  H 4.343450 -3.735378 -0.459961
  H 5.665964 -3.249447 -1.384313
  H 5.856925 -3.546669 0.241662
 14
 96.354387
  O 1.086162 -0.023576 -0.336722
  H 0.821367 0.801155 0.113593
  H 0.432335 -0.189974 -1.044969
  Pt 4.716872 -1.324477 -0.144624
  N 5.011131 5.636824 0.513918
  N 5.234721 -3.231560 -0.585846
  Cl 2.248344 -1.746240 0.038487
  Cl 7.090258 -0.705926 -0.295786
  H 5.998464 5.777253 0.359649
  H 4.359249 5.672900 -0.256112
  H 4.687541 5.500449 1.431027
  H 4.351679 -3.763773 -0.575886
  H 5.669765 -3.265588 -1.502242
  H 5.866706 -3.579946 0.125856
 14
 91.372571
  O 1.098328 -0.018447 -0.414137
  H 0.843030 0.814350 0.045516
  H 0.443846 -0.161937 -1.126211
  Pt 4.708168 -1.348500 -0.247012
  N 4.995761 5.626920 0.490399
  N 5.232502 -3.246790 -0.705931
  Cl 2.267500 -1.800603 -0.065373
  Cl 7.076908 -0.745423 -0.405062
  H 5.984024 5.753420 0.340781
  H 4.341905 5.659215 -0.279050
  H 4.677063 5.449369 1.399893
  H 4.354176 -3.781547 -0.700624
  H 5.667032 -3.264465 -1.624943
  H 5.862856 -3.597347 0.005506
 14
 86.994608
  O 1.102885 -0.010229 -0.442528
  H 0.852234 0.816693 0.025022
  H 0.445578 -0.143680 -1.156221
  Pt 4.694515 -1.357301 -0.278227
  N 4.991599 5.637678 0.482944
  N 5.228591 -3.248865 -0.741855
  Cl 2.282431 -1.844232 -0.102481
  Cl 7.064250 -0.774176 -0.453688
  H 5.983186 5.745371 0.331103
  H 4.336053 5.663512 -0.281903
  H 4.671284 5.427651 1.390050
  H 4.359408 -3.795827 -0.744255
  H 5.668880 -3.252881 -1.658183
  H 5.863675 -3.596628 -0.030414
 14
 82.091219
  O 1.082501 0.007865 -0.438558
  H 0.837130 0.835317 0.035298
  H 0.433197 -0.131905 -1.162398
  Pt 4.683968 -1.341609 -0.292853
  N 4.991478 5.626786 0.473194
  N 5.236873 -3.228811 -0.761840
  Cl 2.292940 -1.888325 -0.072165
  Cl 7.060271 -0.819404 -0.389468
  H 5.982339 5.752504 0.322067
  H 4.347268 5.643274 -0.297355
  H 4.668132 5.392926 1.379044
  H 4.373957 -3.782285 -0.767401
  H 5.682093 -3.228374 -1.678119
  H 5.871484 -3.577680 -0.044838
 14
 78.084178
  O 1.081959 0.014931 -0.440211
  H 0.844788 0.847530 0.031378
  H 0.437068 -0.124695 -1.166728
  Pt 4.666682 -1.322671 -0.312165
  N 4.988289 5.633996 0.464954
  N 5.231713 -3.209347 -0.786355
  Cl 2.312588 -1.964556 -0.034859
  Cl 7.063762 -0.894571 -0.336164
  H 5.977629 5.770943 0.315587
  H 4.351184 5.640050 -0.310661
  H 4.664783 5.382371 1.370432
  H 4.374760 -3.769924 -0.800847
  H 5.684627 -3.199548 -1.700803
  H 5.862876 -3.555211 -0.061754
 14
 75.688904
  O 1.078884 0.026428 -0.455695
  H 0.841447 0.856579 0.015795
  H 0.434856 -0.110168 -1.181076
  Pt 4.668649 -1.330177 -0.332028
  N 4.987681 5.626674 0.457412
  N 5.230102 -3.211901 -0.809140
  Cl 2.334165 -1.984697 -0.052531
  Cl 7.066036 -0.883604 -0.362170
  H 5.967559 5.762523 0.306604
  H 4.351318 5.633449 -0.314166
  H 4.664181 5.371003 1.369718
  H 4.372238 -3.772706 -0.822598
  H 5.681416 -3.199981 -1.724057
  H 5.864390 -3.556996 -0.087245
 14
 72.647011
  O 1.070104 0.045357 -0.475580
  H 0.834865 0.872670 0.001062
  H 0.424317 -0.083785 -1.201228
  Pt 4.671205 -1.340798 -0.358350
  N 4.982215 5.611520 0.452194
  N 5.230368 -3.214715 -0.840093
  Cl 2.366413 -2.017450 -0.080308
  Cl 7.066666 -0.864276 -0.391849
  H 5.970111 5.749229 0.298165
  H 4.341950 5.619419 -0.320844
  H 4.663184 5.354182 1.356648
  H 4.372698 -3.775808 -0.853517
  H 5.681005 -3.199349 -1.755913
  H 5.867793 -3.559638 -0.120295
 14
 69.967088
  O 1.058279 0.070313 -0.497953
  H 0.821318 0.895148 -0.019430
  H 0.414273 -0.055112 -1.225229
  Pt 4.676351 -1.349487 -0.389653
  N 4.980395 5.594091 0.440082
  N 5.235312 -3.219720 -0.878084
  Cl 2.392852 -2.049545 -0.111763
  Cl 7.061613 -0.841765 -0.431320
  H 5.961175 5.731470 0.283282
  H 4.340249 5.602635 -0.328915
  H 4.661612 5.330170 1.353413
  H 4.378105 -3.781802 -0.890241
  H 5.683642 -3.201017 -1.795035
  H 5.876925 -3.564144 -0.161435
 14
 67.275253
  O 1.042849 0.103284 -0.528641
  H 0.810582 0.921520 -0.047188
  H 0.402150 -0.013515 -1.253244
  Pt 4.685707 -1.366617 -0.431632
  N 4.976412 5.584801 0.432516
  N 5.242128 -3.237093 -0.929645
  Cl 2.423929 -2.101181 -0.156316
  Cl 7.051473 -0.811978 -0.484876
  H 5.946264 5.723071 0.273904
  H 4.334396 5.592756 -0.334154
  H 4.666118 5.316088 1.332749
  H 4.382899 -3.800981 -0.941414
  H 5.687377 -3.213772 -1.846394
  H 5.887317 -3.580959 -0.218231
 14
 65.393772
  O 1.043598 0.156954 -0.627546
  H 0.814863 0.976552 -0.129543
  H 0.393980 0.055677 -1.358877
  Pt 4.696663 -1.385663 -0.584552
  N 4.949403 5.531923 0.385948
  N 5.243375 -3.244116 -1.111063
  Cl 2.460215 -2.156000 -0.286868
  Cl 7.051503 -0.816196 -0.647945
  H 5.942576 5.682963 0.213255
  H 4.296534 5.544487 -0.375762
  H 4.641885 5.234293 1.311623
  H 4.389846 -3.809205 -1.125941
  H 5.684512 -3.202776 -2.032027
  H 5.913802 -3.592492 -0.419661
 14
 63.306290
  O 1.033896 0.201407 -0.679687
  H 0.813263 1.011681 -0.175124
  H 0.384709 0.112562 -1.409096
  Pt 4.707644 -1.405907 -0.663065
  N 4.939640 5.502828 0.367419
  N 5.252585 -3.255191 -1.206260
  Cl 2.480055 -2.211277 -0.373218
  Cl 7.040817 -0.780079 -0.747568
  H 5.915193 5.654332 0.190884
  H 4.286463 5.515473 -0.387158
  H 4.643711 5.195712 1.277679
  H 4.400874 -3.818002 -1.215614
  H 5.684566 -3.207297 -2.135695
  H 5.921973 -3.606732 -0.518255
